
  EPA STORM WATER MANAGEMENT MODEL - VERSION 5.1 (Build 5.1.015)
  --------------------------------------------------------------

  WARNING 04: minimum elevation drop used for Conduit 241
  
  *********************************************************
  NOTE: The summary statistics displayed in this report are
  based on results found at every computational time step,  
  not just on results from each reporting time step.
  *********************************************************
  
  ****************
  Analysis Options
  ****************
  Flow Units ............... CMS
  Process Models:
    Rainfall/Runoff ........ NO
    RDII ................... NO
    Snowmelt ............... NO
    Groundwater ............ NO
    Flow Routing ........... YES
    Ponding Allowed ........ NO
    Water Quality .......... NO
  Flow Routing Method ...... DYNWAVE
  Surcharge Method ......... SLOT
  Starting Date ............ 10/31/2022 00:00:00
  Ending Date .............. 10/31/2022 06:00:00
  Antecedent Dry Days ...... 0.0
  Report Time Step ......... 00:00:10
  Routing Time Step ........ 1.00 sec
  Variable Time Step ....... NO
  Maximum Trials ........... 8
  Number of Threads ........ 6
  Head Tolerance ........... 0.001500 m
  
  
  **************************        Volume        Volume
  Flow Routing Continuity        hectare-m      10^6 ltr
  **************************     ---------     ---------
  Dry Weather Inflow .......         0.000         0.000
  Wet Weather Inflow .......         0.000         0.000
  Groundwater Inflow .......         0.000         0.000
  RDII Inflow ..............         0.000         0.000
  External Inflow ..........         4.541        45.406
  External Outflow .........         4.236        42.362
  Flooding Loss ............         0.000         0.000
  Evaporation Loss .........         0.000         0.000
  Exfiltration Loss ........         0.000         0.000
  Initial Stored Volume ....         0.000         0.000
  Final Stored Volume ......         0.305         3.045
  Continuity Error (%) .....        -0.005
  
  
  *************************
  Highest Continuity Errors
  *************************
  Node I09 (1.32%)
  Node J08 (1.32%)
  Node I08 (1.07%)
  Node I10 (1.02%)
  Node K08 (1.02%)
  
  
  ********************************
  Highest Flow Instability Indexes
  ********************************
  All links are stable.
  
  
  *************************
  Routing Time Step Summary
  *************************
  Minimum Time Step           :     1.00 sec
  Average Time Step           :     1.00 sec
  Maximum Time Step           :     1.00 sec
  Percent in Steady State     :     0.00
  Average Iterations per Step :     2.00
  Percent Not Converging      :     0.00
  
  
  ******************
  Node Depth Summary
  ******************
  
  ---------------------------------------------------------------------------------
                                 Average  Maximum  Maximum  Time of Max    Reported
                                   Depth    Depth      HGL   Occurrence   Max Depth
  Node                 Type       Meters   Meters   Meters  days hr:min      Meters
  ---------------------------------------------------------------------------------
  A00                  JUNCTION     0.06     0.06    10.06     0  00:38        0.06
  A01                  JUNCTION     0.07     0.07     9.57     0  00:52        0.07
  A02                  JUNCTION     0.07     0.07     9.07     0  00:55        0.07
  A03                  JUNCTION     0.08     0.08     8.58     0  00:58        0.08
  A04                  JUNCTION     0.08     0.08     8.08     0  01:00        0.08
  A05                  JUNCTION     0.08     0.08     7.58     0  01:02        0.08
  A06                  JUNCTION     0.08     0.08     7.08     0  01:04        0.08
  A07                  JUNCTION     0.08     0.08     6.58     0  01:07        0.08
  A08                  JUNCTION     0.08     0.08     6.08     0  01:08        0.08
  A09                  JUNCTION     0.08     0.08     5.58     0  01:10        0.08
  A10                  JUNCTION     0.11     0.11     5.11     0  01:13        0.11
  B00                  JUNCTION     0.07     0.07     9.57     0  00:52        0.07
  B01                  JUNCTION     0.09     0.09     9.09     0  00:59        0.09
  B02                  JUNCTION     0.10     0.10     8.60     0  01:03        0.10
  B03                  JUNCTION     0.10     0.10     8.10     0  01:05        0.10
  B04                  JUNCTION     0.10     0.11     7.61     0  01:08        0.11
  B05                  JUNCTION     0.11     0.11     7.11     0  01:11        0.11
  B06                  JUNCTION     0.11     0.11     6.61     0  01:12        0.11
  B07                  JUNCTION     0.11     0.11     6.11     0  01:14        0.11
  B08                  JUNCTION     0.11     0.11     5.61     0  01:16        0.11
  B09                  JUNCTION     0.11     0.11     5.11     0  01:18        0.11
  B10                  JUNCTION     0.17     0.17     4.67     0  01:20        0.17
  C00                  JUNCTION     0.07     0.07     9.07     0  00:55        0.07
  C01                  JUNCTION     0.10     0.10     8.60     0  01:03        0.10
  C02                  JUNCTION     0.11     0.11     8.11     0  01:06        0.11
  C03                  JUNCTION     0.12     0.12     7.62     0  01:09        0.12
  C04                  JUNCTION     0.12     0.12     7.12     0  01:11        0.12
  C05                  JUNCTION     0.13     0.13     6.63     0  01:14        0.13
  C06                  JUNCTION     0.13     0.13     6.13     0  01:15        0.13
  C07                  JUNCTION     0.13     0.13     5.63     0  01:17        0.13
  C08                  JUNCTION     0.13     0.13     5.13     0  01:18        0.13
  C09                  JUNCTION     0.13     0.13     4.63     0  01:21        0.13
  C10                  JUNCTION     0.22     0.23     4.23     0  01:23        0.23
  D00                  JUNCTION     0.08     0.08     8.58     0  00:58        0.08
  D01                  JUNCTION     0.10     0.10     8.10     0  01:05        0.10
  D02                  JUNCTION     0.12     0.12     7.62     0  01:09        0.12
  D03                  JUNCTION     0.13     0.13     7.13     0  01:12        0.13
  D04                  JUNCTION     0.14     0.14     6.64     0  01:13        0.14
  D05                  JUNCTION     0.14     0.14     6.14     0  01:15        0.14
  D06                  JUNCTION     0.14     0.15     5.65     0  01:18        0.15
  D07                  JUNCTION     0.15     0.15     5.15     0  01:18        0.15
  D08                  JUNCTION     0.15     0.15     4.65     0  01:21        0.15
  D09                  JUNCTION     0.15     0.15     4.15     0  01:22        0.15
  D10                  JUNCTION     0.28     0.28     3.78     0  01:25        0.28
  E00                  JUNCTION     0.08     0.08     8.08     0  01:00        0.08
  E01                  JUNCTION     0.10     0.11     7.61     0  01:08        0.11
  E02                  JUNCTION     0.12     0.12     7.12     0  01:11        0.12
  E03                  JUNCTION     0.14     0.14     6.64     0  01:13        0.14
  E04                  JUNCTION     0.15     0.15     6.15     0  01:15        0.15
  E05                  JUNCTION     0.15     0.16     5.66     0  01:16        0.16
  E06                  JUNCTION     0.16     0.16     5.16     0  01:18        0.16
  E07                  JUNCTION     0.16     0.16     4.66     0  01:20        0.16
  E08                  JUNCTION     0.16     0.17     4.17     0  01:21        0.17
  E09                  JUNCTION     0.16     0.17     3.67     0  01:23        0.17
  E10                  JUNCTION     0.33     0.34     3.34     0  01:26        0.34
  F00                  JUNCTION     0.08     0.08     7.58     0  01:02        0.08
  F01                  JUNCTION     0.11     0.11     7.11     0  01:11        0.11
  F02                  JUNCTION     0.13     0.13     6.63     0  01:14        0.13
  F03                  JUNCTION     0.14     0.14     6.14     0  01:15        0.14
  F04                  JUNCTION     0.15     0.16     5.66     0  01:16        0.16
  F05                  JUNCTION     0.16     0.16     5.16     0  01:18        0.16
  F06                  JUNCTION     0.17     0.17     4.67     0  01:19        0.17
  F07                  JUNCTION     0.17     0.18     4.18     0  01:21        0.18
  F08                  JUNCTION     0.18     0.18     3.68     0  01:23        0.18
  F09                  JUNCTION     0.18     0.18     3.18     0  01:25        0.18
  F10                  JUNCTION     0.39     0.40     2.90     0  01:27        0.40
  G00                  JUNCTION     0.08     0.08     7.08     0  01:04        0.08
  G01                  JUNCTION     0.11     0.11     6.61     0  01:12        0.11
  G02                  JUNCTION     0.13     0.13     6.13     0  01:15        0.13
  G03                  JUNCTION     0.14     0.15     5.65     0  01:18        0.15
  G04                  JUNCTION     0.16     0.16     5.16     0  01:18        0.16
  G05                  JUNCTION     0.17     0.17     4.67     0  01:19        0.17
  G06                  JUNCTION     0.18     0.18     4.18     0  01:21        0.18
  G07                  JUNCTION     0.18     0.19     3.69     0  01:23        0.19
  G08                  JUNCTION     0.19     0.19     3.19     0  01:24        0.19
  G09                  JUNCTION     0.19     0.19     2.69     0  01:26        0.19
  G10                  JUNCTION     0.47     0.49     2.49     0  06:00        0.49
  H00                  JUNCTION     0.08     0.08     6.58     0  01:07        0.08
  H01                  JUNCTION     0.11     0.11     6.11     0  01:14        0.11
  H02                  JUNCTION     0.13     0.13     5.63     0  01:17        0.13
  H03                  JUNCTION     0.15     0.15     5.15     0  01:18        0.15
  H04                  JUNCTION     0.16     0.16     4.66     0  01:20        0.16
  H05                  JUNCTION     0.17     0.18     4.18     0  01:21        0.18
  H06                  JUNCTION     0.18     0.19     3.69     0  01:23        0.19
  H07                  JUNCTION     0.19     0.19     3.19     0  01:24        0.19
  H08                  JUNCTION     0.19     0.20     2.70     0  01:26        0.20
  H09                  JUNCTION     0.36     0.42     2.42     0  06:00        0.42
  H10                  JUNCTION     0.85     0.93     2.43     0  06:00        0.93
  I00                  JUNCTION     0.08     0.08     6.08     0  01:08        0.08
  I01                  JUNCTION     0.11     0.11     5.61     0  01:16        0.11
  I02                  JUNCTION     0.13     0.13     5.13     0  01:18        0.13
  I03                  JUNCTION     0.15     0.15     4.65     0  01:21        0.15
  I04                  JUNCTION     0.16     0.17     4.17     0  01:21        0.17
  I05                  JUNCTION     0.18     0.18     3.68     0  01:23        0.18
  I06                  JUNCTION     0.19     0.19     3.19     0  01:24        0.19
  I07                  JUNCTION     0.19     0.20     2.70     0  01:26        0.20
  I08                  JUNCTION     0.34     0.39     2.39     0  06:00        0.39
  I09                  JUNCTION     0.78     0.89     2.39     0  06:00        0.89
  I10                  JUNCTION     1.26     1.38     2.38     0  06:00        1.38
  J00                  JUNCTION     0.08     0.08     5.58     0  01:10        0.08
  J01                  JUNCTION     0.11     0.11     5.11     0  01:18        0.11
  J02                  JUNCTION     0.13     0.13     4.63     0  01:21        0.13
  J03                  JUNCTION     0.15     0.15     4.15     0  01:22        0.15
  J04                  JUNCTION     0.16     0.17     3.67     0  01:23        0.17
  J05                  JUNCTION     0.18     0.18     3.18     0  01:25        0.18
  J06                  JUNCTION     0.19     0.19     2.69     0  01:26        0.19
  J07                  JUNCTION     0.36     0.42     2.42     0  06:00        0.42
  J08                  JUNCTION     0.78     0.89     2.39     0  06:00        0.89
  J09                  JUNCTION     1.21     1.34     2.34     0  06:00        1.34
  J10                  JUNCTION     1.65     1.79     2.29     0  06:00        1.79
  K00                  JUNCTION     0.11     0.11     5.11     0  01:13        0.11
  K01                  JUNCTION     0.17     0.17     4.67     0  01:20        0.17
  K02                  JUNCTION     0.22     0.23     4.23     0  01:23        0.23
  K03                  JUNCTION     0.28     0.28     3.78     0  01:25        0.28
  K04                  JUNCTION     0.33     0.34     3.34     0  01:26        0.34
  K05                  JUNCTION     0.39     0.40     2.90     0  01:27        0.40
  K06                  JUNCTION     0.47     0.49     2.49     0  06:00        0.49
  K07                  JUNCTION     0.85     0.93     2.43     0  06:00        0.93
  K08                  JUNCTION     1.26     1.38     2.38     0  06:00        1.38
  K09                  JUNCTION     1.65     1.79     2.29     0  06:00        1.79
  K10                  JUNCTION     1.88     2.02     2.02     0  06:00        2.02
  Outfall              OUTFALL      0.79     0.83     0.83     0  06:00        0.83
  
  
  *******************
  Node Inflow Summary
  *******************
  
  -------------------------------------------------------------------------------------------------
                                  Maximum  Maximum                  Lateral       Total        Flow
                                  Lateral    Total  Time of Max      Inflow      Inflow     Balance
                                   Inflow   Inflow   Occurrence      Volume      Volume       Error
  Node                 Type           CMS      CMS  days hr:min    10^6 ltr    10^6 ltr     Percent
  -------------------------------------------------------------------------------------------------
  A00                  JUNCTION     0.017    0.017     0  00:00       0.375       0.375       0.445
  A01                  JUNCTION     0.017    0.026     0  00:38       0.375       0.562       0.611
  A02                  JUNCTION     0.017    0.030     0  00:52       0.375       0.655       0.584
  A03                  JUNCTION     0.017    0.033     0  00:55       0.375       0.701       0.574
  A04                  JUNCTION     0.017    0.034     0  00:58       0.375       0.724       0.570
  A05                  JUNCTION     0.017    0.034     0  01:00       0.375       0.735       0.568
  A06                  JUNCTION     0.017    0.034     0  01:02       0.375       0.741       0.567
  A07                  JUNCTION     0.017    0.035     0  01:04       0.375       0.744       0.567
  A08                  JUNCTION     0.017    0.035     0  01:07       0.375       0.745       0.566
  A09                  JUNCTION     0.017    0.035     0  01:08       0.375       0.746       0.575
  A10                  JUNCTION     0.017    0.035     0  01:10       0.375       0.746       0.607
  B00                  JUNCTION     0.017    0.026     0  00:38       0.375       0.562       0.611
  B01                  JUNCTION     0.017    0.043     0  00:52       0.375       0.934       0.708
  B02                  JUNCTION     0.017    0.054     0  00:59       0.375        1.16       0.665
  B03                  JUNCTION     0.017    0.061     0  01:03       0.375         1.3       0.644
  B04                  JUNCTION     0.017    0.065     0  01:05       0.375        1.38       0.633
  B05                  JUNCTION     0.017    0.067     0  01:08       0.375        1.43       0.628
  B06                  JUNCTION     0.017    0.068     0  01:11       0.375        1.45       0.625
  B07                  JUNCTION     0.017    0.069     0  01:12       0.375        1.47       0.623
  B08                  JUNCTION     0.017    0.069     0  01:14       0.375        1.47       0.622
  B09                  JUNCTION     0.017    0.069     0  01:16       0.375        1.48       0.629
  B10                  JUNCTION     0.017    0.087     0  01:18       0.375        1.85       0.707
  C00                  JUNCTION     0.017    0.030     0  00:52       0.375       0.655       0.584
  C01                  JUNCTION     0.017    0.054     0  00:59       0.375        1.16       0.665
  C02                  JUNCTION     0.017    0.072     0  01:03       0.375        1.53       0.614
  C03                  JUNCTION     0.017    0.084     0  01:06       0.375        1.78       0.590
  C04                  JUNCTION     0.017    0.091     0  01:09       0.375        1.95       0.575
  C05                  JUNCTION     0.017    0.097     0  01:11       0.375        2.05       0.567
  C06                  JUNCTION     0.017    0.100     0  01:14       0.375        2.12       0.562
  C07                  JUNCTION     0.017    0.102     0  01:15       0.375        2.16       0.559
  C08                  JUNCTION     0.017    0.103     0  01:17       0.375        2.18       0.557
  C09                  JUNCTION     0.017    0.103     0  01:18       0.375        2.19       0.564
  C10                  JUNCTION     0.017    0.156     0  01:21       0.375         3.3       0.599
  D00                  JUNCTION     0.017    0.033     0  00:55       0.375       0.701       0.574
  D01                  JUNCTION     0.017    0.061     0  01:03       0.375         1.3       0.644
  D02                  JUNCTION     0.017    0.084     0  01:06       0.375        1.78       0.590
  D03                  JUNCTION     0.017    0.101     0  01:09       0.375        2.15       0.559
  D04                  JUNCTION     0.017    0.114     0  01:12       0.375        2.41       0.542
  D05                  JUNCTION     0.017    0.122     0  01:14       0.375         2.6       0.531
  D06                  JUNCTION     0.017    0.128     0  01:15       0.375        2.72       0.524
  D07                  JUNCTION     0.017    0.132     0  01:18       0.375         2.8       0.520
  D08                  JUNCTION     0.017    0.135     0  01:18       0.375        2.85       0.517
  D09                  JUNCTION     0.017    0.136     0  01:21       0.375        2.88       0.524
  D10                  JUNCTION     0.017    0.241     0  01:23       0.375        5.09       0.531
  E00                  JUNCTION     0.017    0.034     0  00:58       0.375       0.724       0.570
  E01                  JUNCTION     0.017    0.065     0  01:05       0.375        1.38       0.633
  E02                  JUNCTION     0.017    0.091     0  01:09       0.375        1.95       0.575
  E03                  JUNCTION     0.017    0.114     0  01:12       0.375        2.41       0.542
  E04                  JUNCTION     0.017    0.131     0  01:13       0.375        2.77       0.521
  E05                  JUNCTION     0.017    0.144     0  01:15       0.375        3.05       0.507
  E06                  JUNCTION     0.017    0.154     0  01:18       0.375        3.24       0.499
  E07                  JUNCTION     0.017    0.160     0  01:18       0.375        3.38       0.493
  E08                  JUNCTION     0.017    0.165     0  01:21       0.375        3.48       0.489
  E09                  JUNCTION     0.017    0.168     0  01:22       0.375        3.54       0.496
  E10                  JUNCTION     0.017    0.343     0  01:25       0.375         7.2       0.483
  F00                  JUNCTION     0.017    0.034     0  01:00       0.375       0.735       0.568
  F01                  JUNCTION     0.017    0.067     0  01:08       0.375        1.43       0.628
  F02                  JUNCTION     0.017    0.097     0  01:11       0.375        2.05       0.567
  F03                  JUNCTION     0.017    0.122     0  01:14       0.375         2.6       0.531
  F04                  JUNCTION     0.017    0.144     0  01:15       0.375        3.05       0.507
  F05                  JUNCTION     0.017    0.161     0  01:16       0.375        3.41       0.492
  F06                  JUNCTION     0.017    0.175     0  01:18       0.375        3.68       0.482
  F07                  JUNCTION     0.017    0.185     0  01:20       0.375        3.89       0.475
  F08                  JUNCTION     0.017    0.192     0  01:21       0.375        4.04       0.470
  F09                  JUNCTION     0.017    0.198     0  01:23       0.375        4.15       0.475
  F10                  JUNCTION     0.017    0.459     0  01:26       0.375        9.61       0.448
  G00                  JUNCTION     0.017    0.034     0  01:02       0.375       0.741       0.567
  G01                  JUNCTION     0.017    0.068     0  01:11       0.375        1.45       0.625
  G02                  JUNCTION     0.017    0.100     0  01:14       0.375        2.12       0.562
  G03                  JUNCTION     0.017    0.128     0  01:15       0.375        2.72       0.524
  G04                  JUNCTION     0.017    0.154     0  01:18       0.375        3.24       0.499
  G05                  JUNCTION     0.017    0.175     0  01:18       0.375        3.68       0.482
  G06                  JUNCTION     0.017    0.192     0  01:19       0.375        4.04       0.470
  G07                  JUNCTION     0.017    0.206     0  01:21       0.375        4.32       0.461
  G08                  JUNCTION     0.017    0.217     0  01:23       0.375        4.54       0.455
  G09                  JUNCTION     0.017    0.224     0  01:25       0.375         4.7       0.460
  G10                  JUNCTION     0.017    0.589     0  01:27       0.375        12.3       0.467
  H00                  JUNCTION     0.017    0.035     0  01:04       0.375       0.744       0.567
  H01                  JUNCTION     0.017    0.069     0  01:12       0.375        1.47       0.623
  H02                  JUNCTION     0.017    0.102     0  01:15       0.375        2.16       0.559
  H03                  JUNCTION     0.017    0.132     0  01:18       0.375         2.8       0.520
  H04                  JUNCTION     0.017    0.160     0  01:18       0.375        3.38       0.493
  H05                  JUNCTION     0.017    0.185     0  01:20       0.375        3.89       0.475
  H06                  JUNCTION     0.017    0.206     0  01:21       0.375        4.32       0.461
  H07                  JUNCTION     0.017    0.223     0  01:23       0.375        4.68       0.451
  H08                  JUNCTION     0.017    0.237     0  01:24       0.375        4.96       0.444
  H09                  JUNCTION     0.017    0.402     0  06:00       0.375        7.81       0.805
  H10                  JUNCTION     0.017    0.730     0  00:47       0.375        12.9       0.877
  I00                  JUNCTION     0.017    0.035     0  01:07       0.375       0.745       0.566
  I01                  JUNCTION     0.017    0.069     0  01:14       0.375        1.47       0.622
  I02                  JUNCTION     0.017    0.103     0  01:17       0.375        2.18       0.557
  I03                  JUNCTION     0.017    0.135     0  01:18       0.375        2.85       0.517
  I04                  JUNCTION     0.017    0.165     0  01:21       0.375        3.48       0.489
  I05                  JUNCTION     0.017    0.192     0  01:21       0.375        4.04       0.470
  I06                  JUNCTION     0.017    0.217     0  01:23       0.375        4.54       0.455
  I07                  JUNCTION     0.017    0.237     0  01:24       0.375        4.96       0.444
  I08                  JUNCTION     0.017    0.255     0  01:26       0.375        5.32       1.078
  I09                  JUNCTION     0.017    0.547     0  06:00       0.375        10.7       1.333
  I10                  JUNCTION     0.017    0.855     0  00:27       0.375        12.6       1.034
  J00                  JUNCTION     0.017    0.035     0  01:08       0.375       0.746       0.575
  J01                  JUNCTION     0.017    0.069     0  01:16       0.375        1.48       0.629
  J02                  JUNCTION     0.017    0.103     0  01:18       0.375        2.19       0.564
  J03                  JUNCTION     0.017    0.136     0  01:21       0.375        2.88       0.524
  J04                  JUNCTION     0.017    0.168     0  01:22       0.375        3.54       0.496
  J05                  JUNCTION     0.017    0.198     0  01:23       0.375        4.15       0.475
  J06                  JUNCTION     0.017    0.224     0  01:25       0.375         4.7       0.460
  J07                  JUNCTION     0.017    0.402     0  06:00       0.375        7.81       0.805
  J08                  JUNCTION     0.017    0.547     0  06:00       0.375        10.7       1.333
  J09                  JUNCTION     0.017    0.872     0  06:00       0.375        17.3       0.968
  J10                  JUNCTION     0.017    1.042     0  06:00       0.375        21.2       0.627
  K00                  JUNCTION     0.017    0.035     0  01:10       0.375       0.746       0.607
  K01                  JUNCTION     0.017    0.087     0  01:18       0.375        1.85       0.707
  K02                  JUNCTION     0.017    0.156     0  01:21       0.375         3.3       0.599
  K03                  JUNCTION     0.017    0.241     0  01:23       0.375        5.09       0.531
  K04                  JUNCTION     0.017    0.343     0  01:25       0.375         7.2       0.483
  K05                  JUNCTION     0.017    0.459     0  01:26       0.375        9.61       0.448
  K06                  JUNCTION     0.017    0.589     0  01:27       0.375        12.3       0.467
  K07                  JUNCTION     0.017    0.730     0  00:47       0.375        12.9       0.877
  K08                  JUNCTION     0.017    0.855     0  00:27       0.375        12.6       1.034
  K09                  JUNCTION     0.017    1.042     0  06:00       0.375        21.2       0.627
  K10                  JUNCTION     0.017    2.102     0  06:00       0.375        42.5       0.335
  Outfall              OUTFALL      0.000    2.102     0  06:00           0        42.4       0.000
  
  
  **********************
  Node Surcharge Summary
  **********************
  
  Surcharging occurs when water rises above the top of the highest conduit.
  ---------------------------------------------------------------------
                                               Max. Height   Min. Depth
                                   Hours       Above Crown    Below Rim
  Node                 Type      Surcharged         Meters       Meters
  ---------------------------------------------------------------------
  I10                  JUNCTION        5.34          0.383        8.617
  J09                  JUNCTION        5.31          0.343        8.657
  J10                  JUNCTION        5.57          0.795        8.205
  K08                  JUNCTION        5.34          0.383        8.617
  K09                  JUNCTION        5.57          0.795        8.205
  K10                  JUNCTION        5.70          1.015        7.985
  
  
  *********************
  Node Flooding Summary
  *********************
  
  No nodes were flooded.
  
  
  ***********************
  Outfall Loading Summary
  ***********************
  
  -----------------------------------------------------------
                         Flow       Avg       Max       Total
                         Freq      Flow      Flow      Volume
  Outfall Node           Pcnt       CMS       CMS    10^6 ltr
  -----------------------------------------------------------
  Outfall               99.90     1.963     2.102      42.362
  -----------------------------------------------------------
  System                99.90     1.963     2.102      42.362
  
  
  ********************
  Link Flow Summary
  ********************
  
  -----------------------------------------------------------------------------
                                 Maximum  Time of Max   Maximum    Max/    Max/
                                  |Flow|   Occurrence   |Veloc|    Full    Full
  Link                 Type          CMS  days hr:min     m/sec    Flow   Depth
  -----------------------------------------------------------------------------
  121                  CONDUIT     0.009     0  00:38      0.46    0.01    0.06
  122                  CONDUIT     0.013     0  00:52      0.52    0.01    0.07
  123                  CONDUIT     0.015     0  00:55      0.57    0.01    0.08
  124                  CONDUIT     0.016     0  00:58      0.59    0.01    0.08
  125                  CONDUIT     0.017     0  01:00      0.59    0.01    0.08
  126                  CONDUIT     0.017     0  01:02      0.60    0.01    0.08
  127                  CONDUIT     0.017     0  01:04      0.60    0.01    0.08
  128                  CONDUIT     0.017     0  01:07      0.60    0.01    0.08
  129                  CONDUIT     0.017     0  01:08      0.60    0.01    0.08
  130                  CONDUIT     0.017     0  01:10      0.46    0.01    0.09
  131                  CONDUIT     0.013     0  00:52      0.49    0.01    0.08
  132                  CONDUIT     0.022     0  00:59      0.60    0.02    0.09
  133                  CONDUIT     0.027     0  01:03      0.66    0.02    0.10
  134                  CONDUIT     0.030     0  01:05      0.70    0.02    0.10
  135                  CONDUIT     0.032     0  01:08      0.72    0.02    0.11
  136                  CONDUIT     0.033     0  01:11      0.73    0.02    0.11
  137                  CONDUIT     0.034     0  01:12      0.74    0.02    0.11
  138                  CONDUIT     0.034     0  01:14      0.74    0.02    0.11
  139                  CONDUIT     0.035     0  01:16      0.74    0.03    0.11
  140                  CONDUIT     0.035     0  01:18      0.52    0.03    0.14
  141                  CONDUIT     0.015     0  00:55      0.50    0.01    0.09
  142                  CONDUIT     0.027     0  01:03      0.63    0.02    0.10
  143                  CONDUIT     0.036     0  01:06      0.71    0.03    0.12
  144                  CONDUIT     0.042     0  01:09      0.76    0.03    0.12
  145                  CONDUIT     0.046     0  01:11      0.79    0.03    0.13
  146                  CONDUIT     0.048     0  01:14      0.81    0.04    0.13
  147                  CONDUIT     0.050     0  01:15      0.82    0.04    0.13
  148                  CONDUIT     0.051     0  01:17      0.83    0.04    0.13
  149                  CONDUIT     0.051     0  01:18      0.83    0.04    0.13
  150                  CONDUIT     0.052     0  01:21      0.54    0.04    0.18
  151                  CONDUIT     0.016     0  00:58      0.50    0.01    0.09
  152                  CONDUIT     0.030     0  01:05      0.64    0.02    0.11
  153                  CONDUIT     0.042     0  01:09      0.74    0.03    0.13
  154                  CONDUIT     0.050     0  01:12      0.80    0.04    0.13
  155                  CONDUIT     0.057     0  01:13      0.84    0.04    0.14
  156                  CONDUIT     0.061     0  01:15      0.87    0.04    0.15
  157                  CONDUIT     0.064     0  01:18      0.89    0.05    0.15
  158                  CONDUIT     0.066     0  01:18      0.90    0.05    0.15
  159                  CONDUIT     0.067     0  01:21      0.90    0.05    0.15
  160                  CONDUIT     0.068     0  01:22      0.54    0.05    0.22
  161                  CONDUIT     0.017     0  01:00      0.50    0.01    0.09
  162                  CONDUIT     0.032     0  01:08      0.64    0.02    0.12
  163                  CONDUIT     0.046     0  01:11      0.75    0.03    0.13
  164                  CONDUIT     0.057     0  01:13      0.82    0.04    0.14
  165                  CONDUIT     0.065     0  01:15      0.87    0.05    0.15
  166                  CONDUIT     0.072     0  01:16      0.91    0.05    0.16
  167                  CONDUIT     0.077     0  01:18      0.93    0.06    0.16
  168                  CONDUIT     0.080     0  01:20      0.95    0.06    0.16
  169                  CONDUIT     0.082     0  01:21      0.96    0.06    0.17
  170                  CONDUIT     0.084     0  01:23      0.54    0.06    0.25
  171                  CONDUIT     0.017     0  01:02      0.50    0.01    0.09
  172                  CONDUIT     0.033     0  01:11      0.65    0.02    0.12
  173                  CONDUIT     0.048     0  01:14      0.75    0.04    0.14
  174                  CONDUIT     0.061     0  01:15      0.83    0.04    0.15
  175                  CONDUIT     0.072     0  01:16      0.89    0.05    0.16
  176                  CONDUIT     0.081     0  01:18      0.93    0.06    0.17
  177                  CONDUIT     0.087     0  01:19      0.96    0.06    0.17
  178                  CONDUIT     0.093     0  01:21      0.98    0.07    0.18
  179                  CONDUIT     0.096     0  01:23      1.00    0.07    0.18
  180                  CONDUIT     0.099     0  01:25      0.52    0.07    0.29
  181                  CONDUIT     0.017     0  01:04      0.50    0.01    0.09
  182                  CONDUIT     0.034     0  01:12      0.65    0.02    0.12
  183                  CONDUIT     0.050     0  01:15      0.76    0.04    0.14
  184                  CONDUIT     0.064     0  01:18      0.84    0.05    0.15
  185                  CONDUIT     0.077     0  01:18      0.90    0.06    0.17
  186                  CONDUIT     0.087     0  01:19      0.95    0.06    0.17
  187                  CONDUIT     0.096     0  01:21      0.98    0.07    0.18
  188                  CONDUIT     0.103     0  01:23      1.01    0.07    0.19
  189                  CONDUIT     0.108     0  01:24      1.03    0.08    0.19
  190                  CONDUIT     0.112     0  01:26      0.51    0.08    0.34
  191                  CONDUIT     0.017     0  01:07      0.50    0.01    0.09
  192                  CONDUIT     0.034     0  01:14      0.65    0.02    0.12
  193                  CONDUIT     0.051     0  01:17      0.76    0.04    0.14
  194                  CONDUIT     0.066     0  01:18      0.84    0.05    0.16
  195                  CONDUIT     0.080     0  01:20      0.91    0.06    0.17
  196                  CONDUIT     0.093     0  01:21      0.96    0.07    0.18
  197                  CONDUIT     0.103     0  01:23      1.00    0.07    0.19
  198                  CONDUIT     0.112     0  01:24      1.03    0.08    0.20
  199                  CONDUIT     0.119     0  01:26      1.06    0.09    0.31
  200                  CONDUIT     0.154     0  06:00      0.49    0.11    0.67
  201                  CONDUIT     0.017     0  01:08      0.50    0.01    0.09
  202                  CONDUIT     0.035     0  01:16      0.65    0.03    0.12
  203                  CONDUIT     0.051     0  01:18      0.76    0.04    0.14
  204                  CONDUIT     0.067     0  01:21      0.84    0.05    0.16
  205                  CONDUIT     0.082     0  01:21      0.91    0.06    0.17
  206                  CONDUIT     0.096     0  01:23      0.97    0.07    0.18
  207                  CONDUIT     0.108     0  01:24      1.01    0.08    0.19
  208                  CONDUIT     0.119     0  01:26      1.05    0.09    0.29
  209                  CONDUIT     0.127     0  00:57      1.07    0.09    0.64
  210                  CONDUIT     0.167     0  00:41      0.46    0.12    1.00
  211                  CONDUIT     0.017     0  01:10      0.50    0.01    0.09
  212                  CONDUIT     0.035     0  01:18      0.65    0.03    0.12
  213                  CONDUIT     0.052     0  01:21      0.76    0.04    0.14
  214                  CONDUIT     0.068     0  01:22      0.85    0.05    0.16
  215                  CONDUIT     0.084     0  01:23      0.91    0.06    0.17
  216                  CONDUIT     0.099     0  01:25      0.97    0.07    0.19
  217                  CONDUIT     0.112     0  01:26      1.02    0.08    0.30
  218                  CONDUIT     0.402     0  06:00      1.05    0.29    0.65
  219                  CONDUIT     0.427     0  06:00      1.03    0.31    1.00
  220                  CONDUIT     0.436     0  06:00      0.55    0.32    1.00
  221                  CONDUIT     0.035     0  01:13      0.59    0.03    0.14
  222                  CONDUIT     0.087     0  01:20      0.79    0.06    0.20
  223                  CONDUIT     0.156     0  01:23      0.99    0.11    0.26
  224                  CONDUIT     0.241     0  01:25      1.16    0.18    0.31
  225                  CONDUIT     0.343     0  01:26      1.30    0.25    0.37
  226                  CONDUIT     0.459     0  01:27      1.43    0.33    0.45
  227                  CONDUIT     0.589     0  01:29      1.55    0.43    0.71
  228                  CONDUIT     0.728     0  00:34      1.64    0.53    1.00
  229                  CONDUIT     0.794     0  00:24      1.56    0.58    1.00
  230                  CONDUIT     1.042     0  06:00      1.33    0.76    1.00
  231                  CONDUIT     0.035     0  01:13      0.59    0.03    0.14
  232                  CONDUIT     0.087     0  01:20      0.79    0.06    0.20
  233                  CONDUIT     0.156     0  01:23      0.99    0.11    0.26
  234                  CONDUIT     0.241     0  01:25      1.16    0.18    0.31
  235                  CONDUIT     0.343     0  01:26      1.30    0.25    0.37
  236                  CONDUIT     0.459     0  01:27      1.43    0.33    0.45
  237                  CONDUIT     0.589     0  01:29      1.55    0.43    0.71
  238                  CONDUIT     0.728     0  00:34      1.64    0.53    1.00
  239                  CONDUIT     0.794     0  00:24      1.56    0.58    1.00
  240                  CONDUIT     1.042     0  06:00      1.33    0.76    1.00
  241                  CONDUIT     2.102     0  06:00      2.68   61.81    1.00
  242                  CONDUIT     0.009     0  00:38      0.46    0.01    0.06
  243                  CONDUIT     0.013     0  00:52      0.52    0.01    0.07
  244                  CONDUIT     0.015     0  00:55      0.57    0.01    0.08
  245                  CONDUIT     0.016     0  00:58      0.59    0.01    0.08
  246                  CONDUIT     0.017     0  01:00      0.59    0.01    0.08
  247                  CONDUIT     0.017     0  01:02      0.60    0.01    0.08
  248                  CONDUIT     0.017     0  01:04      0.60    0.01    0.08
  249                  CONDUIT     0.017     0  01:07      0.60    0.01    0.08
  250                  CONDUIT     0.017     0  01:08      0.60    0.01    0.08
  251                  CONDUIT     0.017     0  01:10      0.46    0.01    0.09
  252                  CONDUIT     0.013     0  00:52      0.49    0.01    0.08
  253                  CONDUIT     0.022     0  00:59      0.60    0.02    0.09
  254                  CONDUIT     0.027     0  01:03      0.66    0.02    0.10
  255                  CONDUIT     0.030     0  01:05      0.70    0.02    0.10
  256                  CONDUIT     0.032     0  01:08      0.72    0.02    0.11
  257                  CONDUIT     0.033     0  01:11      0.73    0.02    0.11
  258                  CONDUIT     0.034     0  01:12      0.74    0.02    0.11
  259                  CONDUIT     0.034     0  01:14      0.74    0.02    0.11
  260                  CONDUIT     0.035     0  01:16      0.74    0.03    0.11
  261                  CONDUIT     0.035     0  01:18      0.52    0.03    0.14
  262                  CONDUIT     0.015     0  00:55      0.50    0.01    0.09
  263                  CONDUIT     0.027     0  01:03      0.63    0.02    0.10
  264                  CONDUIT     0.036     0  01:06      0.71    0.03    0.12
  265                  CONDUIT     0.042     0  01:09      0.76    0.03    0.12
  266                  CONDUIT     0.046     0  01:11      0.79    0.03    0.13
  267                  CONDUIT     0.048     0  01:14      0.81    0.04    0.13
  268                  CONDUIT     0.050     0  01:15      0.82    0.04    0.13
  269                  CONDUIT     0.051     0  01:17      0.83    0.04    0.13
  270                  CONDUIT     0.051     0  01:18      0.83    0.04    0.13
  271                  CONDUIT     0.052     0  01:21      0.54    0.04    0.18
  272                  CONDUIT     0.016     0  00:58      0.50    0.01    0.09
  273                  CONDUIT     0.030     0  01:05      0.64    0.02    0.11
  274                  CONDUIT     0.042     0  01:09      0.74    0.03    0.13
  275                  CONDUIT     0.050     0  01:12      0.80    0.04    0.13
  276                  CONDUIT     0.057     0  01:13      0.84    0.04    0.14
  277                  CONDUIT     0.061     0  01:15      0.87    0.04    0.15
  278                  CONDUIT     0.064     0  01:18      0.89    0.05    0.15
  279                  CONDUIT     0.066     0  01:18      0.90    0.05    0.15
  280                  CONDUIT     0.067     0  01:21      0.90    0.05    0.15
  281                  CONDUIT     0.068     0  01:22      0.54    0.05    0.22
  282                  CONDUIT     0.017     0  01:00      0.50    0.01    0.09
  283                  CONDUIT     0.032     0  01:08      0.64    0.02    0.12
  284                  CONDUIT     0.046     0  01:11      0.75    0.03    0.13
  285                  CONDUIT     0.057     0  01:13      0.82    0.04    0.14
  286                  CONDUIT     0.065     0  01:15      0.87    0.05    0.15
  287                  CONDUIT     0.072     0  01:16      0.91    0.05    0.16
  288                  CONDUIT     0.077     0  01:18      0.93    0.06    0.16
  289                  CONDUIT     0.080     0  01:20      0.95    0.06    0.16
  290                  CONDUIT     0.082     0  01:21      0.96    0.06    0.17
  291                  CONDUIT     0.084     0  01:23      0.54    0.06    0.25
  292                  CONDUIT     0.017     0  01:02      0.50    0.01    0.09
  293                  CONDUIT     0.033     0  01:11      0.65    0.02    0.12
  294                  CONDUIT     0.048     0  01:14      0.75    0.04    0.14
  295                  CONDUIT     0.061     0  01:15      0.83    0.04    0.15
  296                  CONDUIT     0.072     0  01:16      0.89    0.05    0.16
  297                  CONDUIT     0.081     0  01:18      0.93    0.06    0.17
  298                  CONDUIT     0.087     0  01:19      0.96    0.06    0.17
  299                  CONDUIT     0.093     0  01:21      0.98    0.07    0.18
  300                  CONDUIT     0.096     0  01:23      1.00    0.07    0.18
  301                  CONDUIT     0.099     0  01:25      0.52    0.07    0.29
  302                  CONDUIT     0.017     0  01:04      0.50    0.01    0.09
  303                  CONDUIT     0.034     0  01:12      0.65    0.02    0.12
  304                  CONDUIT     0.050     0  01:15      0.76    0.04    0.14
  305                  CONDUIT     0.064     0  01:18      0.84    0.05    0.15
  306                  CONDUIT     0.077     0  01:18      0.90    0.06    0.17
  307                  CONDUIT     0.087     0  01:19      0.95    0.06    0.17
  308                  CONDUIT     0.096     0  01:21      0.98    0.07    0.18
  309                  CONDUIT     0.103     0  01:23      1.01    0.07    0.19
  310                  CONDUIT     0.108     0  01:24      1.03    0.08    0.19
  311                  CONDUIT     0.112     0  01:26      0.51    0.08    0.34
  312                  CONDUIT     0.017     0  01:07      0.50    0.01    0.09
  313                  CONDUIT     0.034     0  01:14      0.65    0.02    0.12
  314                  CONDUIT     0.051     0  01:17      0.76    0.04    0.14
  315                  CONDUIT     0.066     0  01:18      0.84    0.05    0.16
  316                  CONDUIT     0.080     0  01:20      0.91    0.06    0.17
  317                  CONDUIT     0.093     0  01:21      0.96    0.07    0.18
  318                  CONDUIT     0.103     0  01:23      1.00    0.07    0.19
  319                  CONDUIT     0.112     0  01:24      1.03    0.08    0.20
  320                  CONDUIT     0.119     0  01:26      1.06    0.09    0.31
  321                  CONDUIT     0.154     0  06:00      0.49    0.11    0.67
  322                  CONDUIT     0.017     0  01:08      0.50    0.01    0.09
  323                  CONDUIT     0.035     0  01:16      0.65    0.03    0.12
  324                  CONDUIT     0.051     0  01:18      0.76    0.04    0.14
  325                  CONDUIT     0.067     0  01:21      0.84    0.05    0.16
  326                  CONDUIT     0.082     0  01:21      0.91    0.06    0.17
  327                  CONDUIT     0.096     0  01:23      0.97    0.07    0.18
  328                  CONDUIT     0.108     0  01:24      1.01    0.08    0.19
  329                  CONDUIT     0.119     0  01:26      1.05    0.09    0.29
  330                  CONDUIT     0.127     0  00:57      1.07    0.09    0.64
  331                  CONDUIT     0.167     0  00:41      0.46    0.12    1.00
  332                  CONDUIT     0.017     0  01:10      0.50    0.01    0.09
  333                  CONDUIT     0.035     0  01:18      0.65    0.03    0.12
  334                  CONDUIT     0.052     0  01:21      0.76    0.04    0.14
  335                  CONDUIT     0.068     0  01:22      0.85    0.05    0.16
  336                  CONDUIT     0.084     0  01:23      0.91    0.06    0.17
  337                  CONDUIT     0.099     0  01:25      0.97    0.07    0.19
  338                  CONDUIT     0.112     0  01:26      1.02    0.08    0.30
  339                  CONDUIT     0.402     0  06:00      1.05    0.29    0.65
  340                  CONDUIT     0.427     0  06:00      1.03    0.31    1.00
  341                  CONDUIT     0.436     0  06:00      0.55    0.32    1.00
  
  
  ***************************
  Flow Classification Summary
  ***************************
  
  -------------------------------------------------------------------------------------
                      Adjusted    ---------- Fraction of Time in Flow Class ---------- 
                       /Actual         Up    Down  Sub   Sup   Up    Down  Norm  Inlet 
  Conduit               Length    Dry  Dry   Dry   Crit  Crit  Crit  Crit  Ltd   Ctrl  
  -------------------------------------------------------------------------------------
  121                     1.00   0.00  0.00  0.00  1.00  0.00  0.00  0.00  0.99  0.00
  122                     1.00   0.00  0.00  0.00  1.00  0.00  0.00  0.00  0.99  0.00
  123                     1.00   0.00  0.00  0.00  1.00  0.00  0.00  0.00  0.99  0.00
  124                     1.00   0.00  0.00  0.00  1.00  0.00  0.00  0.00  0.98  0.00
  125                     1.00   0.00  0.00  0.00  1.00  0.00  0.00  0.00  0.98  0.00
  126                     1.00   0.00  0.00  0.00  1.00  0.00  0.00  0.00  0.97  0.00
  127                     1.00   0.00  0.00  0.00  1.00  0.00  0.00  0.00  0.97  0.00
  128                     1.00   0.00  0.00  0.00  1.00  0.00  0.00  0.00  0.97  0.00
  129                     1.00   0.00  0.00  0.00  1.00  0.00  0.00  0.00  0.96  0.00
  130                     1.00   0.00  0.00  0.00  1.00  0.00  0.00  0.00  1.00  0.00
  131                     1.00   0.00  0.00  0.00  1.00  0.00  0.00  0.00  0.99  0.00
  132                     1.00   0.00  0.00  0.00  1.00  0.00  0.00  0.00  0.99  0.00
  133                     1.00   0.00  0.00  0.00  1.00  0.00  0.00  0.00  0.98  0.00
  134                     1.00   0.00  0.00  0.00  1.00  0.00  0.00  0.00  0.98  0.00
  135                     1.00   0.00  0.00  0.00  1.00  0.00  0.00  0.00  0.97  0.00
  136                     1.00   0.00  0.00  0.00  1.00  0.00  0.00  0.00  0.97  0.00
  137                     1.00   0.00  0.00  0.00  1.00  0.00  0.00  0.00  0.96  0.00
  138                     1.00   0.00  0.00  0.00  1.00  0.00  0.00  0.00  0.96  0.00
  139                     1.00   0.00  0.00  0.00  1.00  0.00  0.00  0.00  0.95  0.00
  140                     1.00   0.00  0.00  0.00  1.00  0.00  0.00  0.00  1.00  0.00
  141                     1.00   0.00  0.00  0.00  1.00  0.00  0.00  0.00  0.99  0.00
  142                     1.00   0.00  0.00  0.00  1.00  0.00  0.00  0.00  0.99  0.00
  143                     1.00   0.00  0.00  0.00  1.00  0.00  0.00  0.00  0.98  0.00
  144                     1.00   0.00  0.00  0.00  1.00  0.00  0.00  0.00  0.98  0.00
  145                     1.00   0.00  0.00  0.00  1.00  0.00  0.00  0.00  0.97  0.00
  146                     1.00   0.00  0.00  0.00  1.00  0.00  0.00  0.00  0.97  0.00
  147                     1.00   0.00  0.00  0.00  1.00  0.00  0.00  0.00  0.96  0.00
  148                     1.00   0.00  0.00  0.00  1.00  0.00  0.00  0.00  0.96  0.00
  149                     1.00   0.00  0.00  0.00  1.00  0.00  0.00  0.00  0.95  0.00
  150                     1.00   0.00  0.00  0.00  1.00  0.00  0.00  0.00  1.00  0.00
  151                     1.00   0.00  0.00  0.00  1.00  0.00  0.00  0.00  0.99  0.00
  152                     1.00   0.00  0.00  0.00  1.00  0.00  0.00  0.00  0.99  0.00
  153                     1.00   0.00  0.00  0.00  1.00  0.00  0.00  0.00  0.98  0.00
  154                     1.00   0.00  0.00  0.00  1.00  0.00  0.00  0.00  0.98  0.00
  155                     1.00   0.00  0.00  0.00  1.00  0.00  0.00  0.00  0.97  0.00
  156                     1.00   0.00  0.00  0.00  1.00  0.00  0.00  0.00  0.97  0.00
  157                     1.00   0.00  0.00  0.00  1.00  0.00  0.00  0.00  0.96  0.00
  158                     1.00   0.00  0.00  0.00  1.00  0.00  0.00  0.00  0.96  0.00
  159                     1.00   0.00  0.00  0.00  1.00  0.00  0.00  0.00  0.95  0.00
  160                     1.00   0.00  0.00  0.00  1.00  0.00  0.00  0.00  1.00  0.00
  161                     1.00   0.00  0.00  0.00  1.00  0.00  0.00  0.00  0.99  0.00
  162                     1.00   0.00  0.00  0.00  1.00  0.00  0.00  0.00  0.99  0.00
  163                     1.00   0.00  0.00  0.00  1.00  0.00  0.00  0.00  0.98  0.00
  164                     1.00   0.00  0.00  0.00  1.00  0.00  0.00  0.00  0.98  0.00
  165                     1.00   0.00  0.00  0.00  1.00  0.00  0.00  0.00  0.97  0.00
  166                     1.00   0.00  0.00  0.00  1.00  0.00  0.00  0.00  0.97  0.00
  167                     1.00   0.00  0.00  0.00  1.00  0.00  0.00  0.00  0.96  0.00
  168                     1.00   0.00  0.00  0.00  1.00  0.00  0.00  0.00  0.96  0.00
  169                     1.00   0.00  0.00  0.00  1.00  0.00  0.00  0.00  0.95  0.00
  170                     1.00   0.00  0.00  0.00  1.00  0.00  0.00  0.00  1.00  0.00
  171                     1.00   0.00  0.00  0.00  1.00  0.00  0.00  0.00  0.99  0.00
  172                     1.00   0.00  0.00  0.00  1.00  0.00  0.00  0.00  0.99  0.00
  173                     1.00   0.00  0.00  0.00  1.00  0.00  0.00  0.00  0.98  0.00
  174                     1.00   0.00  0.00  0.00  1.00  0.00  0.00  0.00  0.98  0.00
  175                     1.00   0.00  0.00  0.00  1.00  0.00  0.00  0.00  0.97  0.00
  176                     1.00   0.00  0.00  0.00  1.00  0.00  0.00  0.00  0.97  0.00
  177                     1.00   0.00  0.00  0.00  1.00  0.00  0.00  0.00  0.96  0.00
  178                     1.00   0.00  0.00  0.00  1.00  0.00  0.00  0.00  0.96  0.00
  179                     1.00   0.00  0.00  0.00  1.00  0.00  0.00  0.00  0.95  0.00
  180                     1.00   0.00  0.00  0.00  1.00  0.00  0.00  0.00  1.00  0.00
  181                     1.00   0.00  0.00  0.00  1.00  0.00  0.00  0.00  0.99  0.00
  182                     1.00   0.00  0.00  0.00  1.00  0.00  0.00  0.00  0.99  0.00
  183                     1.00   0.00  0.00  0.00  1.00  0.00  0.00  0.00  0.98  0.00
  184                     1.00   0.00  0.00  0.00  1.00  0.00  0.00  0.00  0.98  0.00
  185                     1.00   0.00  0.00  0.00  1.00  0.00  0.00  0.00  0.97  0.00
  186                     1.00   0.00  0.00  0.00  1.00  0.00  0.00  0.00  0.97  0.00
  187                     1.00   0.00  0.00  0.00  1.00  0.00  0.00  0.00  0.96  0.00
  188                     1.00   0.00  0.00  0.00  1.00  0.00  0.00  0.00  0.96  0.00
  189                     1.00   0.00  0.00  0.00  1.00  0.00  0.00  0.00  0.95  0.00
  190                     1.00   0.00  0.00  0.00  1.00  0.00  0.00  0.00  1.00  0.00
  191                     1.00   0.00  0.00  0.00  1.00  0.00  0.00  0.00  0.99  0.00
  192                     1.00   0.00  0.00  0.00  1.00  0.00  0.00  0.00  0.99  0.00
  193                     1.00   0.00  0.00  0.00  1.00  0.00  0.00  0.00  0.98  0.00
  194                     1.00   0.00  0.00  0.00  1.00  0.00  0.00  0.00  0.98  0.00
  195                     1.00   0.00  0.00  0.00  1.00  0.00  0.00  0.00  0.97  0.00
  196                     1.00   0.00  0.00  0.00  1.00  0.00  0.00  0.00  0.96  0.00
  197                     1.00   0.00  0.00  0.00  1.00  0.00  0.00  0.00  0.96  0.00
  198                     1.00   0.00  0.00  0.00  1.00  0.00  0.00  0.00  0.96  0.00
  199                     1.00   0.00  0.00  0.00  1.00  0.00  0.00  0.00  0.95  0.00
  200                     1.00   0.00  0.00  0.00  1.00  0.00  0.00  0.00  0.13  0.00
  201                     1.00   0.00  0.00  0.00  1.00  0.00  0.00  0.00  0.99  0.00
  202                     1.00   0.00  0.00  0.00  1.00  0.00  0.00  0.00  0.99  0.00
  203                     1.00   0.00  0.00  0.00  1.00  0.00  0.00  0.00  0.98  0.00
  204                     1.00   0.00  0.00  0.00  1.00  0.00  0.00  0.00  0.98  0.00
  205                     1.00   0.00  0.00  0.00  1.00  0.00  0.00  0.00  0.97  0.00
  206                     1.00   0.00  0.00  0.00  1.00  0.00  0.00  0.00  0.96  0.00
  207                     1.00   0.00  0.00  0.00  1.00  0.00  0.00  0.00  0.96  0.00
  208                     1.00   0.00  0.00  0.00  1.00  0.00  0.00  0.00  0.96  0.00
  209                     1.00   0.00  0.00  0.00  1.00  0.00  0.00  0.00  0.11  0.00
  210                     1.00   0.00  0.00  0.00  1.00  0.00  0.00  0.00  0.08  0.00
  211                     1.00   0.00  0.00  0.00  1.00  0.00  0.00  0.00  0.99  0.00
  212                     1.00   0.00  0.00  0.00  1.00  0.00  0.00  0.00  0.99  0.00
  213                     1.00   0.00  0.00  0.00  1.00  0.00  0.00  0.00  0.98  0.00
  214                     1.00   0.00  0.00  0.00  1.00  0.00  0.00  0.00  0.98  0.00
  215                     1.00   0.00  0.00  0.00  1.00  0.00  0.00  0.00  0.97  0.00
  216                     1.00   0.00  0.00  0.00  1.00  0.00  0.00  0.00  0.96  0.00
  217                     1.00   0.00  0.00  0.00  1.00  0.00  0.00  0.00  0.96  0.00
  218                     1.00   0.00  0.00  0.00  1.00  0.00  0.00  0.00  0.20  0.00
  219                     1.00   0.00  0.00  0.00  1.00  0.00  0.00  0.00  0.03  0.00
  220                     1.00   0.00  0.00  0.00  1.00  0.00  0.00  0.00  0.06  0.00
  221                     1.00   0.00  0.00  0.00  1.00  0.00  0.00  0.00  0.99  0.00
  222                     1.00   0.00  0.00  0.00  1.00  0.00  0.00  0.00  0.99  0.00
  223                     1.00   0.00  0.00  0.00  1.00  0.00  0.00  0.00  0.98  0.00
  224                     1.00   0.00  0.00  0.00  1.00  0.00  0.00  0.00  0.98  0.00
  225                     1.00   0.00  0.00  0.00  1.00  0.00  0.00  0.00  0.97  0.00
  226                     1.00   0.00  0.00  0.00  1.00  0.00  0.00  0.00  0.97  0.00
  227                     1.00   0.00  0.00  0.00  1.00  0.00  0.00  0.00  0.23  0.00
  228                     1.00   0.00  0.00  0.00  1.00  0.00  0.00  0.00  0.06  0.00
  229                     1.00   0.00  0.00  0.00  1.00  0.00  0.00  0.00  0.03  0.00
  230                     1.00   0.00  0.00  0.00  1.00  0.00  0.00  0.00  0.04  0.00
  231                     1.00   0.00  0.00  0.00  1.00  0.00  0.00  0.00  0.99  0.00
  232                     1.00   0.00  0.00  0.00  1.00  0.00  0.00  0.00  0.99  0.00
  233                     1.00   0.00  0.00  0.00  1.00  0.00  0.00  0.00  0.98  0.00
  234                     1.00   0.00  0.00  0.00  1.00  0.00  0.00  0.00  0.98  0.00
  235                     1.00   0.00  0.00  0.00  1.00  0.00  0.00  0.00  0.97  0.00
  236                     1.00   0.00  0.00  0.00  1.00  0.00  0.00  0.00  0.97  0.00
  237                     1.00   0.00  0.00  0.00  1.00  0.00  0.00  0.00  0.23  0.00
  238                     1.00   0.00  0.00  0.00  1.00  0.00  0.00  0.00  0.06  0.00
  239                     1.00   0.00  0.00  0.00  1.00  0.00  0.00  0.00  0.03  0.00
  240                     1.00   0.00  0.00  0.00  1.00  0.00  0.00  0.00  0.04  0.00
  241                     1.00   0.00  0.00  0.00  1.00  0.00  0.00  0.00  0.00  0.00
  242                     1.00   0.00  0.00  0.00  1.00  0.00  0.00  0.00  0.99  0.00
  243                     1.00   0.00  0.00  0.00  1.00  0.00  0.00  0.00  0.99  0.00
  244                     1.00   0.00  0.00  0.00  1.00  0.00  0.00  0.00  0.99  0.00
  245                     1.00   0.00  0.00  0.00  1.00  0.00  0.00  0.00  0.98  0.00
  246                     1.00   0.00  0.00  0.00  1.00  0.00  0.00  0.00  0.98  0.00
  247                     1.00   0.00  0.00  0.00  1.00  0.00  0.00  0.00  0.97  0.00
  248                     1.00   0.00  0.00  0.00  1.00  0.00  0.00  0.00  0.97  0.00
  249                     1.00   0.00  0.00  0.00  1.00  0.00  0.00  0.00  0.97  0.00
  250                     1.00   0.00  0.00  0.00  1.00  0.00  0.00  0.00  0.96  0.00
  251                     1.00   0.00  0.00  0.00  1.00  0.00  0.00  0.00  1.00  0.00
  252                     1.00   0.00  0.00  0.00  1.00  0.00  0.00  0.00  0.99  0.00
  253                     1.00   0.00  0.00  0.00  1.00  0.00  0.00  0.00  0.99  0.00
  254                     1.00   0.00  0.00  0.00  1.00  0.00  0.00  0.00  0.98  0.00
  255                     1.00   0.00  0.00  0.00  1.00  0.00  0.00  0.00  0.98  0.00
  256                     1.00   0.00  0.00  0.00  1.00  0.00  0.00  0.00  0.97  0.00
  257                     1.00   0.00  0.00  0.00  1.00  0.00  0.00  0.00  0.97  0.00
  258                     1.00   0.00  0.00  0.00  1.00  0.00  0.00  0.00  0.96  0.00
  259                     1.00   0.00  0.00  0.00  1.00  0.00  0.00  0.00  0.96  0.00
  260                     1.00   0.00  0.00  0.00  1.00  0.00  0.00  0.00  0.95  0.00
  261                     1.00   0.00  0.00  0.00  1.00  0.00  0.00  0.00  1.00  0.00
  262                     1.00   0.00  0.00  0.00  1.00  0.00  0.00  0.00  0.99  0.00
  263                     1.00   0.00  0.00  0.00  1.00  0.00  0.00  0.00  0.99  0.00
  264                     1.00   0.00  0.00  0.00  1.00  0.00  0.00  0.00  0.98  0.00
  265                     1.00   0.00  0.00  0.00  1.00  0.00  0.00  0.00  0.98  0.00
  266                     1.00   0.00  0.00  0.00  1.00  0.00  0.00  0.00  0.97  0.00
  267                     1.00   0.00  0.00  0.00  1.00  0.00  0.00  0.00  0.97  0.00
  268                     1.00   0.00  0.00  0.00  1.00  0.00  0.00  0.00  0.96  0.00
  269                     1.00   0.00  0.00  0.00  1.00  0.00  0.00  0.00  0.96  0.00
  270                     1.00   0.00  0.00  0.00  1.00  0.00  0.00  0.00  0.95  0.00
  271                     1.00   0.00  0.00  0.00  1.00  0.00  0.00  0.00  1.00  0.00
  272                     1.00   0.00  0.00  0.00  1.00  0.00  0.00  0.00  0.99  0.00
  273                     1.00   0.00  0.00  0.00  1.00  0.00  0.00  0.00  0.99  0.00
  274                     1.00   0.00  0.00  0.00  1.00  0.00  0.00  0.00  0.98  0.00
  275                     1.00   0.00  0.00  0.00  1.00  0.00  0.00  0.00  0.98  0.00
  276                     1.00   0.00  0.00  0.00  1.00  0.00  0.00  0.00  0.97  0.00
  277                     1.00   0.00  0.00  0.00  1.00  0.00  0.00  0.00  0.97  0.00
  278                     1.00   0.00  0.00  0.00  1.00  0.00  0.00  0.00  0.96  0.00
  279                     1.00   0.00  0.00  0.00  1.00  0.00  0.00  0.00  0.96  0.00
  280                     1.00   0.00  0.00  0.00  1.00  0.00  0.00  0.00  0.95  0.00
  281                     1.00   0.00  0.00  0.00  1.00  0.00  0.00  0.00  1.00  0.00
  282                     1.00   0.00  0.00  0.00  1.00  0.00  0.00  0.00  0.99  0.00
  283                     1.00   0.00  0.00  0.00  1.00  0.00  0.00  0.00  0.99  0.00
  284                     1.00   0.00  0.00  0.00  1.00  0.00  0.00  0.00  0.98  0.00
  285                     1.00   0.00  0.00  0.00  1.00  0.00  0.00  0.00  0.98  0.00
  286                     1.00   0.00  0.00  0.00  1.00  0.00  0.00  0.00  0.97  0.00
  287                     1.00   0.00  0.00  0.00  1.00  0.00  0.00  0.00  0.97  0.00
  288                     1.00   0.00  0.00  0.00  1.00  0.00  0.00  0.00  0.96  0.00
  289                     1.00   0.00  0.00  0.00  1.00  0.00  0.00  0.00  0.96  0.00
  290                     1.00   0.00  0.00  0.00  1.00  0.00  0.00  0.00  0.95  0.00
  291                     1.00   0.00  0.00  0.00  1.00  0.00  0.00  0.00  1.00  0.00
  292                     1.00   0.00  0.00  0.00  1.00  0.00  0.00  0.00  0.99  0.00
  293                     1.00   0.00  0.00  0.00  1.00  0.00  0.00  0.00  0.99  0.00
  294                     1.00   0.00  0.00  0.00  1.00  0.00  0.00  0.00  0.98  0.00
  295                     1.00   0.00  0.00  0.00  1.00  0.00  0.00  0.00  0.98  0.00
  296                     1.00   0.00  0.00  0.00  1.00  0.00  0.00  0.00  0.97  0.00
  297                     1.00   0.00  0.00  0.00  1.00  0.00  0.00  0.00  0.97  0.00
  298                     1.00   0.00  0.00  0.00  1.00  0.00  0.00  0.00  0.96  0.00
  299                     1.00   0.00  0.00  0.00  1.00  0.00  0.00  0.00  0.96  0.00
  300                     1.00   0.00  0.00  0.00  1.00  0.00  0.00  0.00  0.95  0.00
  301                     1.00   0.00  0.00  0.00  1.00  0.00  0.00  0.00  1.00  0.00
  302                     1.00   0.00  0.00  0.00  1.00  0.00  0.00  0.00  0.99  0.00
  303                     1.00   0.00  0.00  0.00  1.00  0.00  0.00  0.00  0.99  0.00
  304                     1.00   0.00  0.00  0.00  1.00  0.00  0.00  0.00  0.98  0.00
  305                     1.00   0.00  0.00  0.00  1.00  0.00  0.00  0.00  0.98  0.00
  306                     1.00   0.00  0.00  0.00  1.00  0.00  0.00  0.00  0.97  0.00
  307                     1.00   0.00  0.00  0.00  1.00  0.00  0.00  0.00  0.97  0.00
  308                     1.00   0.00  0.00  0.00  1.00  0.00  0.00  0.00  0.96  0.00
  309                     1.00   0.00  0.00  0.00  1.00  0.00  0.00  0.00  0.96  0.00
  310                     1.00   0.00  0.00  0.00  1.00  0.00  0.00  0.00  0.95  0.00
  311                     1.00   0.00  0.00  0.00  1.00  0.00  0.00  0.00  1.00  0.00
  312                     1.00   0.00  0.00  0.00  1.00  0.00  0.00  0.00  0.99  0.00
  313                     1.00   0.00  0.00  0.00  1.00  0.00  0.00  0.00  0.99  0.00
  314                     1.00   0.00  0.00  0.00  1.00  0.00  0.00  0.00  0.98  0.00
  315                     1.00   0.00  0.00  0.00  1.00  0.00  0.00  0.00  0.98  0.00
  316                     1.00   0.00  0.00  0.00  1.00  0.00  0.00  0.00  0.97  0.00
  317                     1.00   0.00  0.00  0.00  1.00  0.00  0.00  0.00  0.96  0.00
  318                     1.00   0.00  0.00  0.00  1.00  0.00  0.00  0.00  0.96  0.00
  319                     1.00   0.00  0.00  0.00  1.00  0.00  0.00  0.00  0.96  0.00
  320                     1.00   0.00  0.00  0.00  1.00  0.00  0.00  0.00  0.95  0.00
  321                     1.00   0.00  0.00  0.00  1.00  0.00  0.00  0.00  0.13  0.00
  322                     1.00   0.00  0.00  0.00  1.00  0.00  0.00  0.00  0.99  0.00
  323                     1.00   0.00  0.00  0.00  1.00  0.00  0.00  0.00  0.99  0.00
  324                     1.00   0.00  0.00  0.00  1.00  0.00  0.00  0.00  0.98  0.00
  325                     1.00   0.00  0.00  0.00  1.00  0.00  0.00  0.00  0.98  0.00
  326                     1.00   0.00  0.00  0.00  1.00  0.00  0.00  0.00  0.97  0.00
  327                     1.00   0.00  0.00  0.00  1.00  0.00  0.00  0.00  0.96  0.00
  328                     1.00   0.00  0.00  0.00  1.00  0.00  0.00  0.00  0.96  0.00
  329                     1.00   0.00  0.00  0.00  1.00  0.00  0.00  0.00  0.96  0.00
  330                     1.00   0.00  0.00  0.00  1.00  0.00  0.00  0.00  0.11  0.00
  331                     1.00   0.00  0.00  0.00  1.00  0.00  0.00  0.00  0.08  0.00
  332                     1.00   0.00  0.00  0.00  1.00  0.00  0.00  0.00  0.99  0.00
  333                     1.00   0.00  0.00  0.00  1.00  0.00  0.00  0.00  0.99  0.00
  334                     1.00   0.00  0.00  0.00  1.00  0.00  0.00  0.00  0.98  0.00
  335                     1.00   0.00  0.00  0.00  1.00  0.00  0.00  0.00  0.98  0.00
  336                     1.00   0.00  0.00  0.00  1.00  0.00  0.00  0.00  0.97  0.00
  337                     1.00   0.00  0.00  0.00  1.00  0.00  0.00  0.00  0.96  0.00
  338                     1.00   0.00  0.00  0.00  1.00  0.00  0.00  0.00  0.96  0.00
  339                     1.00   0.00  0.00  0.00  1.00  0.00  0.00  0.00  0.20  0.00
  340                     1.00   0.00  0.00  0.00  1.00  0.00  0.00  0.00  0.03  0.00
  341                     1.00   0.00  0.00  0.00  1.00  0.00  0.00  0.00  0.06  0.00
  
  
  *************************
  Conduit Surcharge Summary
  *************************
  
  ----------------------------------------------------------------------------
                                                           Hours        Hours 
                         --------- Hours Full --------   Above Full   Capacity
  Conduit                Both Ends  Upstream  Dnstream   Normal Flow   Limited
  ----------------------------------------------------------------------------
  210                         0.01      0.01      5.34      0.01         0.01
  219                         0.01      0.01      5.31      0.01         0.01
  220                         5.31      5.31      5.57      0.01         0.01
  228                         0.01      0.01      5.34      0.01         0.01
  229                         5.34      5.34      5.57      0.01         0.01
  230                         5.57      5.57      5.70      0.01         0.01
  238                         0.01      0.01      5.34      0.01         0.01
  239                         5.34      5.34      5.57      0.01         0.01
  240                         5.57      5.57      5.70      0.01         0.01
  241                         0.01      5.70      0.01      5.90         5.60
  331                         0.01      0.01      5.34      0.01         0.01
  340                         0.01      0.01      5.31      0.01         0.01
  341                         5.31      5.31      5.57      0.01         0.01
  

  Analysis begun on:  Mon Nov 28 19:18:54 2022
  Analysis ended on:  Mon Nov 28 19:18:56 2022
  Total elapsed time: 00:00:02