
  EPA STORM WATER MANAGEMENT MODEL - VERSION 5.1 (Build 5.1.015)
  --------------------------------------------------------------

  WARNING 04: minimum elevation drop used for Conduit 341
  
  *********************************************************
  NOTE: The summary statistics displayed in this report are
  based on results found at every computational time step,  
  not just on results from each reporting time step.
  *********************************************************
  
  ****************
  Analysis Options
  ****************
  Flow Units ............... CMS
  Process Models:
    Rainfall/Runoff ........ NO
    RDII ................... NO
    Snowmelt ............... NO
    Groundwater ............ NO
    Flow Routing ........... YES
    Ponding Allowed ........ NO
    Water Quality .......... NO
  Flow Routing Method ...... DYNWAVE
  Surcharge Method ......... SLOT
  Starting Date ............ 10/31/2022 00:00:00
  Ending Date .............. 10/31/2022 06:00:00
  Antecedent Dry Days ...... 0.0
  Report Time Step ......... 00:00:10
  Routing Time Step ........ 1.00 sec
  Variable Time Step ....... NO
  Maximum Trials ........... 8
  Number of Threads ........ 6
  Head Tolerance ........... 0.001500 m
  
  
  **************************        Volume        Volume
  Flow Routing Continuity        hectare-m      10^6 ltr
  **************************     ---------     ---------
  Dry Weather Inflow .......         0.000         0.000
  Wet Weather Inflow .......         0.000         0.000
  Groundwater Inflow .......         0.000         0.000
  RDII Inflow ..............         0.000         0.000
  External Inflow ..........         4.541        45.406
  External Outflow .........         3.491        34.908
  Flooding Loss ............         0.000         0.000
  Evaporation Loss .........         0.000         0.000
  Exfiltration Loss ........         0.000         0.000
  Initial Stored Volume ....         0.000         0.000
  Final Stored Volume ......         0.987         9.868
  Continuity Error (%) .....         1.386
  
  
  *************************
  Highest Continuity Errors
  *************************
  Node E01 (12.41%)
  Node D01 (12.39%)
  Node F01 (12.38%)
  Node G01 (12.33%)
  Node C01 (12.33%)
  
  
  ********************************
  Highest Flow Instability Indexes
  ********************************
  All links are stable.
  
  
  *************************
  Routing Time Step Summary
  *************************
  Minimum Time Step           :     1.00 sec
  Average Time Step           :     1.00 sec
  Maximum Time Step           :     1.00 sec
  Percent in Steady State     :     0.00
  Average Iterations per Step :     2.00
  Percent Not Converging      :     0.00
  
  
  ******************
  Node Depth Summary
  ******************
  
  ---------------------------------------------------------------------------------
                                 Average  Maximum  Maximum  Time of Max    Reported
                                   Depth    Depth      HGL   Occurrence   Max Depth
  Node                 Type       Meters   Meters   Meters  days hr:min      Meters
  ---------------------------------------------------------------------------------
  A00                  JUNCTION     3.13     4.51     5.51     0  06:00        4.51
  A01                  JUNCTION     3.17     4.56     5.51     0  06:00        4.56
  A02                  JUNCTION     3.22     4.61     5.51     0  06:00        4.61
  A03                  JUNCTION     3.27     4.66     5.51     0  06:00        4.66
  A04                  JUNCTION     3.31     4.71     5.51     0  06:00        4.71
  A05                  JUNCTION     3.35     4.76     5.51     0  06:00        4.76
  A06                  JUNCTION     3.40     4.81     5.51     0  06:00        4.81
  A07                  JUNCTION     3.44     4.85     5.50     0  06:00        4.85
  A08                  JUNCTION     3.48     4.90     5.50     0  06:00        4.90
  A09                  JUNCTION     3.53     4.94     5.49     0  06:00        4.94
  A10                  JUNCTION     3.57     4.98     5.48     0  06:00        4.98
  B00                  JUNCTION     3.16     4.55     5.50     0  06:00        4.55
  B01                  JUNCTION     3.21     4.60     5.50     0  06:00        4.60
  B02                  JUNCTION     3.26     4.65     5.50     0  06:00        4.65
  B03                  JUNCTION     3.30     4.70     5.50     0  06:00        4.70
  B04                  JUNCTION     3.35     4.75     5.50     0  06:00        4.75
  B05                  JUNCTION     3.39     4.80     5.50     0  06:00        4.80
  B06                  JUNCTION     3.44     4.85     5.50     0  06:00        4.85
  B07                  JUNCTION     3.48     4.89     5.49     0  06:00        4.89
  B08                  JUNCTION     3.52     4.94     5.49     0  06:00        4.94
  B09                  JUNCTION     3.57     4.98     5.48     0  06:00        4.98
  B10                  JUNCTION     3.61     5.03     5.48     0  06:00        5.03
  C00                  JUNCTION     3.18     4.57     5.47     0  06:00        4.57
  C01                  JUNCTION     3.23     4.62     5.47     0  06:00        4.62
  C02                  JUNCTION     3.28     4.67     5.47     0  06:00        4.67
  C03                  JUNCTION     3.32     4.72     5.47     0  06:00        4.72
  C04                  JUNCTION     3.37     4.77     5.47     0  06:00        4.77
  C05                  JUNCTION     3.41     4.81     5.46     0  06:00        4.81
  C06                  JUNCTION     3.46     4.86     5.46     0  06:00        4.86
  C07                  JUNCTION     3.50     4.91     5.46     0  06:00        4.91
  C08                  JUNCTION     3.55     4.95     5.45     0  06:00        4.95
  C09                  JUNCTION     3.59     5.00     5.45     0  06:00        5.00
  C10                  JUNCTION     3.63     5.04     5.44     0  06:00        5.04
  D00                  JUNCTION     3.17     4.54     5.39     0  06:00        4.54
  D01                  JUNCTION     3.22     4.59     5.39     0  06:00        4.59
  D02                  JUNCTION     3.27     4.64     5.39     0  06:00        4.64
  D03                  JUNCTION     3.31     4.69     5.39     0  06:00        4.69
  D04                  JUNCTION     3.36     4.74     5.39     0  06:00        4.74
  D05                  JUNCTION     3.40     4.79     5.39     0  06:00        4.79
  D06                  JUNCTION     3.45     4.83     5.38     0  06:00        4.83
  D07                  JUNCTION     3.49     4.88     5.38     0  06:00        4.88
  D08                  JUNCTION     3.54     4.93     5.38     0  06:00        4.93
  D09                  JUNCTION     3.58     4.97     5.37     0  06:00        4.97
  D10                  JUNCTION     3.62     5.01     5.36     0  06:00        5.01
  E00                  JUNCTION     3.12     4.45     5.25     0  06:00        4.45
  E01                  JUNCTION     3.17     4.50     5.25     0  06:00        4.50
  E02                  JUNCTION     3.21     4.55     5.25     0  06:00        4.55
  E03                  JUNCTION     3.26     4.60     5.25     0  06:00        4.60
  E04                  JUNCTION     3.31     4.65     5.25     0  06:00        4.65
  E05                  JUNCTION     3.35     4.70     5.25     0  06:00        4.70
  E06                  JUNCTION     3.40     4.74     5.24     0  06:00        4.74
  E07                  JUNCTION     3.44     4.79     5.24     0  06:00        4.79
  E08                  JUNCTION     3.48     4.84     5.24     0  06:00        4.84
  E09                  JUNCTION     3.53     4.88     5.23     0  06:00        4.88
  E10                  JUNCTION     3.57     4.92     5.22     0  06:00        4.92
  F00                  JUNCTION     3.01     4.28     5.03     0  06:00        4.28
  F01                  JUNCTION     3.06     4.33     5.03     0  06:00        4.33
  F02                  JUNCTION     3.10     4.38     5.03     0  06:00        4.38
  F03                  JUNCTION     3.15     4.43     5.03     0  06:00        4.43
  F04                  JUNCTION     3.20     4.48     5.03     0  06:00        4.48
  F05                  JUNCTION     3.24     4.53     5.03     0  06:00        4.53
  F06                  JUNCTION     3.29     4.58     5.03     0  06:00        4.58
  F07                  JUNCTION     3.33     4.62     5.02     0  06:00        4.62
  F08                  JUNCTION     3.38     4.67     5.02     0  06:00        4.67
  F09                  JUNCTION     3.42     4.71     5.01     0  06:00        4.71
  F10                  JUNCTION     3.46     4.75     5.00     0  06:00        4.75
  G00                  JUNCTION     2.83     4.02     4.72     0  06:00        4.02
  G01                  JUNCTION     2.88     4.07     4.72     0  06:00        4.07
  G02                  JUNCTION     2.93     4.12     4.72     0  06:00        4.12
  G03                  JUNCTION     2.97     4.16     4.71     0  06:00        4.16
  G04                  JUNCTION     3.02     4.21     4.71     0  06:00        4.21
  G05                  JUNCTION     3.07     4.26     4.71     0  06:00        4.26
  G06                  JUNCTION     3.11     4.31     4.71     0  06:00        4.31
  G07                  JUNCTION     3.16     4.36     4.71     0  06:00        4.36
  G08                  JUNCTION     3.20     4.40     4.70     0  06:00        4.40
  G09                  JUNCTION     3.24     4.44     4.69     0  06:00        4.44
  G10                  JUNCTION     3.29     4.49     4.69     0  06:00        4.49
  H00                  JUNCTION     2.57     3.63     4.28     0  06:00        3.63
  H01                  JUNCTION     2.62     3.68     4.28     0  06:00        3.68
  H02                  JUNCTION     2.67     3.73     4.28     0  06:00        3.73
  H03                  JUNCTION     2.71     3.78     4.28     0  06:00        3.78
  H04                  JUNCTION     2.76     3.83     4.28     0  06:00        3.83
  H05                  JUNCTION     2.81     3.88     4.28     0  06:00        3.88
  H06                  JUNCTION     2.85     3.92     4.27     0  06:00        3.92
  H07                  JUNCTION     2.89     3.97     4.27     0  06:00        3.97
  H08                  JUNCTION     2.94     4.02     4.27     0  06:00        4.02
  H09                  JUNCTION     2.98     4.06     4.26     0  06:00        4.06
  H10                  JUNCTION     3.03     4.10     4.25     0  06:00        4.10
  I00                  JUNCTION     2.21     3.11     3.71     0  06:00        3.11
  I01                  JUNCTION     2.26     3.16     3.71     0  06:00        3.16
  I02                  JUNCTION     2.31     3.21     3.71     0  06:00        3.21
  I03                  JUNCTION     2.36     3.26     3.71     0  06:00        3.26
  I04                  JUNCTION     2.40     3.31     3.71     0  06:00        3.31
  I05                  JUNCTION     2.45     3.35     3.70     0  06:00        3.35
  I06                  JUNCTION     2.49     3.40     3.70     0  06:00        3.40
  I07                  JUNCTION     2.54     3.45     3.70     0  06:00        3.45
  I08                  JUNCTION     2.58     3.49     3.69     0  06:00        3.49
  I09                  JUNCTION     2.62     3.54     3.69     0  06:00        3.54
  I10                  JUNCTION     2.67     3.58     3.68     0  06:00        3.58
  J00                  JUNCTION     1.74     2.42     2.97     0  06:00        2.42
  J01                  JUNCTION     1.79     2.47     2.97     0  06:00        2.47
  J02                  JUNCTION     1.83     2.52     2.97     0  06:00        2.52
  J03                  JUNCTION     1.88     2.57     2.97     0  06:00        2.57
  J04                  JUNCTION     1.93     2.62     2.97     0  06:00        2.62
  J05                  JUNCTION     1.97     2.67     2.97     0  06:00        2.67
  J06                  JUNCTION     2.02     2.72     2.97     0  06:00        2.72
  J07                  JUNCTION     2.06     2.76     2.96     0  06:00        2.76
  J08                  JUNCTION     2.11     2.81     2.96     0  06:00        2.81
  J09                  JUNCTION     2.15     2.85     2.95     0  06:00        2.85
  J10                  JUNCTION     2.19     2.89     2.94     0  06:00        2.89
  K00                  JUNCTION     1.13     1.62     2.12     0  02:03        1.62
  K01                  JUNCTION     1.18     1.66     2.11     0  02:03        1.65
  K02                  JUNCTION     1.23     1.66     2.06     0  02:03        1.65
  K03                  JUNCTION     1.27     1.69     2.04     0  06:00        1.69
  K04                  JUNCTION     1.32     1.74     2.04     0  06:00        1.74
  K05                  JUNCTION     1.36     1.79     2.04     0  06:00        1.79
  K06                  JUNCTION     1.41     1.84     2.04     0  06:00        1.84
  K07                  JUNCTION     1.45     1.88     2.03     0  06:00        1.88
  K08                  JUNCTION     1.50     1.93     2.03     0  06:00        1.93
  K09                  JUNCTION     1.54     1.97     2.02     0  06:00        1.97
  K10                  JUNCTION     1.58     2.02     2.02     0  06:00        2.02
  Outfall              OUTFALL      0.70     0.83     0.83     0  06:00        0.83
  
  
  *******************
  Node Inflow Summary
  *******************
  
  -------------------------------------------------------------------------------------------------
                                  Maximum  Maximum                  Lateral       Total        Flow
                                  Lateral    Total  Time of Max      Inflow      Inflow     Balance
                                   Inflow   Inflow   Occurrence      Volume      Volume       Error
  Node                 Type           CMS      CMS  days hr:min    10^6 ltr    10^6 ltr     Percent
  -------------------------------------------------------------------------------------------------
  A00                  JUNCTION     0.017    0.043     0  01:48       0.375       0.379      13.442
  A01                  JUNCTION     0.017    0.075     0  01:48       0.375       0.727      13.705
  A02                  JUNCTION     0.017    0.084     0  01:47       0.375        1.04       9.187
  A03                  JUNCTION     0.017    0.089     0  01:52       0.375        1.35       6.951
  A04                  JUNCTION     0.017    0.107     0  01:52       0.375        1.65       5.621
  A05                  JUNCTION     0.017    0.125     0  01:52       0.375        1.94       4.744
  A06                  JUNCTION     0.017    0.146     0  01:52       0.375        2.22       4.121
  A07                  JUNCTION     0.017    0.161     0  01:52       0.375        2.49       3.655
  A08                  JUNCTION     0.017    0.175     0  01:55       0.375        2.76       3.292
  A09                  JUNCTION     0.017    0.188     0  01:55       0.375        3.03       2.994
  A10                  JUNCTION     0.017    0.202     0  01:55       0.375        3.31       2.738
  B00                  JUNCTION     0.017    0.028     0  01:47       0.375       0.377      13.534
  B01                  JUNCTION     0.017    0.048     0  01:46       0.375       0.718      13.924
  B02                  JUNCTION     0.017    0.067     0  01:54       0.375        1.02       9.398
  B03                  JUNCTION     0.017    0.085     0  01:54       0.375        1.32       7.130
  B04                  JUNCTION     0.017    0.101     0  01:54       0.375        1.61       5.774
  B05                  JUNCTION     0.017    0.117     0  01:54       0.375        1.89       4.873
  B06                  JUNCTION     0.017    0.128     0  01:54       0.375        2.17       4.230
  B07                  JUNCTION     0.017    0.143     0  01:54       0.375        2.44       3.743
  B08                  JUNCTION     0.017    0.156     0  06:00       0.375        2.72       3.349
  B09                  JUNCTION     0.017    0.174     0  06:00       0.375           3       3.020
  B10                  JUNCTION     0.017    0.382     0  06:00       0.375         6.5       2.074
  C00                  JUNCTION     0.017    0.027     0  01:52       0.375       0.376      13.586
  C01                  JUNCTION     0.017    0.041     0  01:53       0.375       0.712      14.058
  C02                  JUNCTION     0.017    0.060     0  01:53       0.375        1.01       9.540
  C03                  JUNCTION     0.017    0.079     0  01:53       0.375         1.3       7.258
  C04                  JUNCTION     0.017    0.095     0  01:53       0.375        1.58       5.883
  C05                  JUNCTION     0.017    0.109     0  01:53       0.375        1.86       4.958
  C06                  JUNCTION     0.017    0.122     0  01:53       0.375        2.14       4.280
  C07                  JUNCTION     0.017    0.139     0  05:59       0.375        2.43       3.758
  C08                  JUNCTION     0.017    0.158     0  01:54       0.375        2.72       3.351
  C09                  JUNCTION     0.017    0.177     0  01:54       0.375           3       3.021
  C10                  JUNCTION     0.017    0.573     0  06:00       0.375        9.66       1.387
  D00                  JUNCTION     0.017    0.020     0  01:51       0.375       0.375      13.595
  D01                  JUNCTION     0.017    0.037     0  01:56       0.375       0.707      14.148
  D02                  JUNCTION     0.017    0.055     0  02:05       0.375       0.998       9.635
  D03                  JUNCTION     0.017    0.071     0  02:05       0.375        1.28       7.330
  D04                  JUNCTION     0.017    0.088     0  02:11       0.375        1.57       5.925
  D05                  JUNCTION     0.017    0.104     0  05:59       0.375        1.86       4.970
  D06                  JUNCTION     0.017    0.122     0  05:59       0.375        2.14       4.278
  D07                  JUNCTION     0.017    0.139     0  05:59       0.375        2.43       3.756
  D08                  JUNCTION     0.017    0.156     0  06:00       0.375        2.72       3.349
  D09                  JUNCTION     0.017    0.174     0  06:00       0.375           3       3.019
  D10                  JUNCTION     0.017    0.764     0  06:00       0.375        12.8       1.041
  E00                  JUNCTION     0.017    0.017     0  00:00       0.375       0.375      13.560
  E01                  JUNCTION     0.017    0.037     0  02:05       0.375       0.706      14.168
  E02                  JUNCTION     0.017    0.055     0  02:05       0.375       0.993       9.667
  E03                  JUNCTION     0.017    0.071     0  02:07       0.375        1.28       7.343
  E04                  JUNCTION     0.017    0.087     0  05:59       0.375        1.57       5.922
  E05                  JUNCTION     0.017    0.104     0  05:59       0.375        1.86       4.963
  E06                  JUNCTION     0.017    0.122     0  05:59       0.375        2.14       4.272
  E07                  JUNCTION     0.017    0.139     0  06:00       0.375        2.43       3.751
  E08                  JUNCTION     0.017    0.156     0  05:59       0.375        2.72       3.344
  E09                  JUNCTION     0.017    0.174     0  06:00       0.375        3.01       3.014
  E10                  JUNCTION     0.017    0.956     0  06:00       0.375          16       0.833
  F00                  JUNCTION     0.017    0.017     0  00:00       0.375       0.375      13.492
  F01                  JUNCTION     0.017    0.037     0  02:01       0.375       0.706      14.129
  F02                  JUNCTION     0.017    0.055     0  02:07       0.375       0.994       9.640
  F03                  JUNCTION     0.017    0.072     0  02:07       0.375        1.28       7.322
  F04                  JUNCTION     0.017    0.088     0  02:07       0.375        1.57       5.905
  F05                  JUNCTION     0.017    0.104     0  05:59       0.375        1.86       4.948
  F06                  JUNCTION     0.017    0.122     0  05:59       0.375        2.14       4.259
  F07                  JUNCTION     0.017    0.139     0  05:59       0.375        2.43       3.740
  F08                  JUNCTION     0.017    0.156     0  06:00       0.375        2.72       3.334
  F09                  JUNCTION     0.017    0.174     0  06:00       0.375        3.01       3.006
  F10                  JUNCTION     0.017    1.147     0  06:00       0.375        19.1       0.693
  G00                  JUNCTION     0.017    0.017     0  00:00       0.375       0.375      13.386
  G01                  JUNCTION     0.017    0.039     0  02:05       0.375       0.706      14.065
  G02                  JUNCTION     0.017    0.058     0  01:54       0.375       0.994       9.596
  G03                  JUNCTION     0.017    0.076     0  01:54       0.375        1.28       7.288
  G04                  JUNCTION     0.017    0.092     0  01:54       0.375        1.57       5.877
  G05                  JUNCTION     0.017    0.107     0  01:54       0.375        1.86       4.925
  G06                  JUNCTION     0.017    0.122     0  06:00       0.375        2.15       4.240
  G07                  JUNCTION     0.017    0.139     0  06:00       0.375        2.43       3.723
  G08                  JUNCTION     0.017    0.156     0  06:00       0.375        2.72       3.319
  G09                  JUNCTION     0.017    0.174     0  05:59       0.375        3.01       2.992
  G10                  JUNCTION     0.017    1.338     0  06:00       0.375        22.3       0.592
  H00                  JUNCTION     0.017    0.017     0  00:00       0.375       0.375      13.232
  H01                  JUNCTION     0.017    0.043     0  01:55       0.375       0.707      13.969
  H02                  JUNCTION     0.017    0.065     0  01:55       0.375       0.996       9.530
  H03                  JUNCTION     0.017    0.084     0  01:55       0.375        1.28       7.239
  H04                  JUNCTION     0.017    0.105     0  01:55       0.375        1.57       5.838
  H05                  JUNCTION     0.017    0.125     0  01:55       0.375        1.86       4.893
  H06                  JUNCTION     0.017    0.142     0  01:55       0.375        2.15       4.212
  H07                  JUNCTION     0.017    0.161     0  01:55       0.375        2.44       3.698
  H08                  JUNCTION     0.017    0.176     0  01:55       0.375        2.73       3.297
  H09                  JUNCTION     0.017    0.193     0  01:55       0.375        3.01       2.972
  H10                  JUNCTION     0.017    1.529     0  06:00       0.375        25.5       0.516
  I00                  JUNCTION     0.017    0.027     0  01:55       0.375       0.375      13.019
  I01                  JUNCTION     0.017    0.046     0  01:59       0.375       0.708      13.818
  I02                  JUNCTION     0.017    0.073     0  01:56       0.375       0.999       9.418
  I03                  JUNCTION     0.017    0.099     0  01:56       0.375        1.29       7.155
  I04                  JUNCTION     0.017    0.122     0  01:56       0.375        1.58       5.774
  I05                  JUNCTION     0.017    0.145     0  01:56       0.375        1.87       4.842
  I06                  JUNCTION     0.017    0.170     0  01:56       0.375        2.15       4.171
  I07                  JUNCTION     0.017    0.193     0  01:56       0.375        2.44       3.664
  I08                  JUNCTION     0.017    0.213     0  01:56       0.375        2.73       3.267
  I09                  JUNCTION     0.017    0.234     0  01:56       0.375        3.02       2.945
  I10                  JUNCTION     0.017    1.720     0  06:00       0.375        28.7       0.456
  J00                  JUNCTION     0.017    0.038     0  01:57       0.375       0.377      12.680
  J01                  JUNCTION     0.017    0.063     0  01:57       0.375       0.718      13.476
  J02                  JUNCTION     0.017    0.088     0  01:58       0.375        1.02       9.145
  J03                  JUNCTION     0.017    0.116     0  01:58       0.375        1.31       6.959
  J04                  JUNCTION     0.017    0.139     0  01:58       0.375         1.6       5.631
  J05                  JUNCTION     0.017    0.162     0  01:58       0.375        1.89       4.733
  J06                  JUNCTION     0.017    0.183     0  01:58       0.375        2.18       4.084
  J07                  JUNCTION     0.017    0.200     0  01:58       0.375        2.46       3.594
  J08                  JUNCTION     0.017    0.214     0  01:58       0.375        2.75       3.211
  J09                  JUNCTION     0.017    0.241     0  01:58       0.375        3.04       2.899
  J10                  JUNCTION     0.017    1.911     0  06:00       0.375        31.8       0.409
  K00                  JUNCTION     0.017    0.106     0  02:01       0.375       0.384      12.083
  K01                  JUNCTION     0.017    0.210     0  02:01       0.375       0.747      12.682
  K02                  JUNCTION     0.017    0.263     0  02:00       0.375        1.07       8.495
  K03                  JUNCTION     0.017    0.285     0  02:00       0.375        1.39       6.432
  K04                  JUNCTION     0.017    0.276     0  01:59       0.375         1.7       5.219
  K05                  JUNCTION     0.017    0.259     0  01:59       0.375           2       4.400
  K06                  JUNCTION     0.017    0.252     0  01:59       0.375         2.3       3.819
  K07                  JUNCTION     0.017    0.236     0  01:59       0.375        2.58       3.381
  K08                  JUNCTION     0.017    0.238     0  02:04       0.375        2.87       3.037
  K09                  JUNCTION     0.017    0.260     0  02:04       0.375        3.15       2.757
  K10                  JUNCTION     0.017    2.102     0  06:00       0.375        35.1       0.377
  Outfall              OUTFALL      0.000    2.102     0  06:00           0        34.9       0.000
  
  
  **********************
  Node Surcharge Summary
  **********************
  
  Surcharging occurs when water rises above the top of the highest conduit.
  ---------------------------------------------------------------------
                                               Max. Height   Min. Depth
                                   Hours       Above Crown    Below Rim
  Node                 Type      Surcharged         Meters       Meters
  ---------------------------------------------------------------------
  A00                  JUNCTION        4.18          3.512        5.488
  A01                  JUNCTION        4.19          3.562        5.438
  A02                  JUNCTION        4.20          3.612        5.388
  A03                  JUNCTION        4.21          3.661        5.339
  A04                  JUNCTION        4.23          3.710        5.290
  A05                  JUNCTION        4.26          3.758        5.242
  A06                  JUNCTION        4.29          3.805        5.195
  A07                  JUNCTION        4.33          3.852        5.148
  A08                  JUNCTION        4.38          3.897        5.103
  A09                  JUNCTION        4.44          3.941        5.059
  A10                  JUNCTION        4.50          3.984        5.016
  B00                  JUNCTION        4.20          3.553        5.447
  B01                  JUNCTION        4.20          3.603        5.397
  B02                  JUNCTION        4.22          3.653        5.347
  B03                  JUNCTION        4.24          3.702        5.298
  B04                  JUNCTION        4.26          3.751        5.249
  B05                  JUNCTION        4.29          3.799        5.201
  B06                  JUNCTION        4.33          3.847        5.153
  B07                  JUNCTION        4.38          3.893        5.107
  B08                  JUNCTION        4.44          3.938        5.062
  B09                  JUNCTION        4.50          3.983        5.017
  B10                  JUNCTION        4.57          4.025        4.975
  C00                  JUNCTION        4.21          3.568        5.432
  C01                  JUNCTION        4.22          3.618        5.382
  C02                  JUNCTION        4.24          3.668        5.332
  C03                  JUNCTION        4.26          3.717        5.283
  C04                  JUNCTION        4.30          3.766        5.234
  C05                  JUNCTION        4.33          3.814        5.186
  C06                  JUNCTION        4.38          3.862        5.138
  C07                  JUNCTION        4.43          3.908        5.092
  C08                  JUNCTION        4.50          3.954        5.046
  C09                  JUNCTION        4.57          3.998        5.002
  C10                  JUNCTION        4.65          4.041        4.959
  D00                  JUNCTION        4.23          3.540        5.460
  D01                  JUNCTION        4.25          3.590        5.410
  D02                  JUNCTION        4.27          3.640        5.360
  D03                  JUNCTION        4.30          3.689        5.311
  D04                  JUNCTION        4.33          3.738        5.262
  D05                  JUNCTION        4.38          3.786        5.214
  D06                  JUNCTION        4.43          3.833        5.167
  D07                  JUNCTION        4.50          3.880        5.120
  D08                  JUNCTION        4.57          3.925        5.075
  D09                  JUNCTION        4.65          3.969        5.031
  D10                  JUNCTION        4.73          4.012        4.988
  E00                  JUNCTION        4.24          3.451        5.549
  E01                  JUNCTION        4.27          3.500        5.500
  E02                  JUNCTION        4.29          3.550        5.450
  E03                  JUNCTION        4.33          3.600        5.400
  E04                  JUNCTION        4.37          3.648        5.352
  E05                  JUNCTION        4.42          3.697        5.303
  E06                  JUNCTION        4.48          3.744        5.256
  E07                  JUNCTION        4.55          3.790        5.210
  E08                  JUNCTION        4.63          3.836        5.164
  E09                  JUNCTION        4.71          3.880        5.120
  E10                  JUNCTION        4.80          3.923        5.077
  F00                  JUNCTION        4.25          3.282        5.718
  F01                  JUNCTION        4.28          3.332        5.668
  F02                  JUNCTION        4.31          3.382        5.618
  F03                  JUNCTION        4.35          3.431        5.569
  F04                  JUNCTION        4.40          3.480        5.520
  F05                  JUNCTION        4.46          3.528        5.472
  F06                  JUNCTION        4.52          3.575        5.425
  F07                  JUNCTION        4.59          3.622        5.378
  F08                  JUNCTION        4.68          3.667        5.333
  F09                  JUNCTION        4.75          3.711        5.289
  F10                  JUNCTION        4.85          3.754        5.246
  G00                  JUNCTION        4.25          3.016        5.984
  G01                  JUNCTION        4.28          3.066        5.934
  G02                  JUNCTION        4.31          3.115        5.885
  G03                  JUNCTION        4.36          3.165        5.835
  G04                  JUNCTION        4.41          3.213        5.787
  G05                  JUNCTION        4.47          3.262        5.738
  G06                  JUNCTION        4.54          3.309        5.691
  G07                  JUNCTION        4.61          3.355        5.645
  G08                  JUNCTION        4.70          3.401        5.599
  G09                  JUNCTION        4.78          3.445        5.555
  G10                  JUNCTION        4.87          3.487        5.513
  H00                  JUNCTION        4.22          2.632        6.368
  H01                  JUNCTION        4.25          2.682        6.318
  H02                  JUNCTION        4.29          2.731        6.269
  H03                  JUNCTION        4.33          2.781        6.219
  H04                  JUNCTION        4.39          2.829        6.171
  H05                  JUNCTION        4.45          2.878        6.122
  H06                  JUNCTION        4.52          2.925        6.075
  H07                  JUNCTION        4.60          2.971        6.029
  H08                  JUNCTION        4.68          3.017        5.983
  H09                  JUNCTION        4.77          3.061        5.939
  H10                  JUNCTION        4.86          3.103        5.897
  I00                  JUNCTION        4.16          2.108        6.892
  I01                  JUNCTION        4.19          2.158        6.842
  I02                  JUNCTION        4.21          2.208        6.792
  I03                  JUNCTION        4.26          2.257        6.743
  I04                  JUNCTION        4.31          2.306        6.694
  I05                  JUNCTION        4.38          2.354        6.646
  I06                  JUNCTION        4.45          2.402        6.598
  I07                  JUNCTION        4.54          2.448        6.552
  I08                  JUNCTION        4.62          2.493        6.507
  I09                  JUNCTION        4.72          2.537        6.463
  I10                  JUNCTION        4.82          2.580        6.420
  J00                  JUNCTION        4.08          1.422        7.578
  J01                  JUNCTION        4.08          1.472        7.528
  J02                  JUNCTION        4.10          1.522        7.478
  J03                  JUNCTION        4.12          1.571        7.429
  J04                  JUNCTION        4.15          1.620        7.380
  J05                  JUNCTION        4.21          1.668        7.332
  J06                  JUNCTION        4.28          1.715        7.285
  J07                  JUNCTION        4.38          1.761        7.239
  J08                  JUNCTION        4.47          1.806        7.194
  J09                  JUNCTION        4.58          1.850        7.150
  J10                  JUNCTION        4.70          1.893        7.107
  K00                  JUNCTION        3.97          0.618        8.382
  K01                  JUNCTION        3.98          0.661        8.339
  K02                  JUNCTION        3.98          0.660        8.340
  K03                  JUNCTION        3.99          0.694        8.306
  K04                  JUNCTION        4.01          0.743        8.257
  K05                  JUNCTION        4.02          0.791        8.209
  K06                  JUNCTION        4.04          0.838        8.162
  K07                  JUNCTION        4.07          0.884        8.116
  K08                  JUNCTION        4.11          0.929        8.071
  K09                  JUNCTION        4.20          0.973        8.027
  K10                  JUNCTION        4.33          1.015        7.985
  
  
  *********************
  Node Flooding Summary
  *********************
  
  No nodes were flooded.
  
  
  ***********************
  Outfall Loading Summary
  ***********************
  
  -----------------------------------------------------------
                         Flow       Avg       Max       Total
                         Freq      Flow      Flow      Volume
  Outfall Node           Pcnt       CMS       CMS    10^6 ltr
  -----------------------------------------------------------
  Outfall               99.90     1.618     2.102      34.908
  -----------------------------------------------------------
  System                99.90     1.618     2.102      34.908
  
  
  ********************
  Link Flow Summary
  ********************
  
  -----------------------------------------------------------------------------
                                 Maximum  Time of Max   Maximum    Max/    Max/
                                  |Flow|   Occurrence   |Veloc|    Full    Full
  Link                 Type          CMS  days hr:min     m/sec    Flow   Depth
  -----------------------------------------------------------------------------
  121                  CONDUIT     0.025     0  01:48      0.27    0.06    1.00
  122                  CONDUIT     0.057     0  01:48      0.29    0.13    1.00
  123                  CONDUIT     0.072     0  01:52      0.32    0.16    1.00
  124                  CONDUIT     0.090     0  01:52      0.34    0.21    1.00
  125                  CONDUIT     0.107     0  01:52      0.37    0.25    1.00
  126                  CONDUIT     0.128     0  01:52      0.39    0.29    1.00
  127                  CONDUIT     0.143     0  01:52      0.40    0.33    1.00
  128                  CONDUIT     0.157     0  01:55      0.41    0.36    1.00
  129                  CONDUIT     0.171     0  01:55      0.39    0.39    1.00
  130                  CONDUIT     0.185     0  01:55      0.34    0.42    1.00
  131                  CONDUIT     0.028     0  01:54      0.27    0.06    1.00
  132                  CONDUIT     0.050     0  01:54      0.29    0.11    1.00
  133                  CONDUIT     0.068     0  01:54      0.32    0.16    1.00
  134                  CONDUIT     0.083     0  01:54      0.34    0.19    1.00
  135                  CONDUIT     0.099     0  01:54      0.37    0.23    1.00
  136                  CONDUIT     0.111     0  01:54      0.39    0.25    1.00
  137                  CONDUIT     0.126     0  01:54      0.40    0.29    1.00
  138                  CONDUIT     0.139     0  06:00      0.38    0.32    1.00
  139                  CONDUIT     0.156     0  06:00      0.34    0.36    1.00
  140                  CONDUIT     0.174     0  06:00      0.28    0.40    1.00
  141                  CONDUIT     0.023     0  01:53      0.27    0.05    1.00
  142                  CONDUIT     0.042     0  01:53      0.29    0.10    1.00
  143                  CONDUIT     0.061     0  01:53      0.32    0.14    1.00
  144                  CONDUIT     0.077     0  01:53      0.34    0.18    1.00
  145                  CONDUIT     0.092     0  01:53      0.37    0.21    1.00
  146                  CONDUIT     0.105     0  01:53      0.39    0.24    1.00
  147                  CONDUIT     0.122     0  05:59      0.39    0.28    1.00
  148                  CONDUIT     0.140     0  01:54      0.37    0.32    1.00
  149                  CONDUIT     0.160     0  01:54      0.33    0.37    1.00
  150                  CONDUIT     0.174     0  01:54      0.29    0.40    1.00
  151                  CONDUIT     0.020     0  01:56      0.27    0.05    1.00
  152                  CONDUIT     0.037     0  02:05      0.29    0.09    1.00
  153                  CONDUIT     0.054     0  02:05      0.32    0.12    1.00
  154                  CONDUIT     0.070     0  02:11      0.34    0.16    1.00
  156                  CONDUIT     0.104     0  05:59      0.39    0.24    1.00
  157                  CONDUIT     0.122     0  05:59      0.39    0.28    1.00
  158                  CONDUIT     0.139     0  06:00      0.37    0.32    1.00
  159                  CONDUIT     0.156     0  06:00      0.33    0.36    1.00
  160                  CONDUIT     0.174     0  06:00      0.29    0.40    1.00
  161                  CONDUIT     0.020     0  02:05      0.27    0.05    1.00
  162                  CONDUIT     0.037     0  02:05      0.29    0.09    1.00
  163                  CONDUIT     0.054     0  02:07      0.32    0.12    1.00
  164                  CONDUIT     0.069     0  05:59      0.34    0.16    1.00
  165                  CONDUIT     0.087     0  05:59      0.37    0.20    1.00
  166                  CONDUIT     0.104     0  06:00      0.39    0.24    1.00
  167                  CONDUIT     0.122     0  06:00      0.39    0.28    1.00
  168                  CONDUIT     0.139     0  05:59      0.37    0.32    1.00
  169                  CONDUIT     0.156     0  06:00      0.33    0.36    1.00
  170                  CONDUIT     0.174     0  06:00      0.29    0.40    1.00
  171                  CONDUIT     0.020     0  02:01      0.27    0.05    1.00
  172                  CONDUIT     0.038     0  02:07      0.29    0.09    1.00
  173                  CONDUIT     0.054     0  02:07      0.32    0.12    1.00
  174                  CONDUIT     0.071     0  02:07      0.34    0.16    1.00
  175                  CONDUIT     0.087     0  05:59      0.37    0.20    1.00
  176                  CONDUIT     0.104     0  05:59      0.39    0.24    1.00
  177                  CONDUIT     0.122     0  05:59      0.39    0.28    1.00
  178                  CONDUIT     0.139     0  06:00      0.37    0.32    1.00
  179                  CONDUIT     0.156     0  06:00      0.33    0.36    1.00
  180                  CONDUIT     0.174     0  06:00      0.29    0.40    1.00
  181                  CONDUIT     0.022     0  02:05      0.27    0.05    1.00
  182                  CONDUIT     0.041     0  01:54      0.29    0.09    1.00
  183                  CONDUIT     0.059     0  01:54      0.32    0.13    1.00
  184                  CONDUIT     0.075     0  01:54      0.34    0.17    1.00
  185                  CONDUIT     0.090     0  01:54      0.37    0.21    1.00
  186                  CONDUIT     0.104     0  06:00      0.39    0.24    1.00
  187                  CONDUIT     0.122     0  06:00      0.39    0.28    1.00
  188                  CONDUIT     0.139     0  06:00      0.37    0.32    1.00
  189                  CONDUIT     0.156     0  05:59      0.33    0.36    1.00
  190                  CONDUIT     0.174     0  06:00      0.29    0.40    1.00
  191                  CONDUIT     0.025     0  01:55      0.27    0.06    1.00
  192                  CONDUIT     0.047     0  01:55      0.29    0.11    1.00
  193                  CONDUIT     0.067     0  01:55      0.32    0.15    1.00
  194                  CONDUIT     0.088     0  01:55      0.34    0.20    1.00
  195                  CONDUIT     0.107     0  01:55      0.37    0.25    1.00
  196                  CONDUIT     0.125     0  01:55      0.39    0.29    1.00
  197                  CONDUIT     0.143     0  01:55      0.39    0.33    1.00
  198                  CONDUIT     0.159     0  01:55      0.37    0.36    1.00
  199                  CONDUIT     0.175     0  01:55      0.33    0.40    1.00
  200                  CONDUIT     0.192     0  01:55      0.29    0.44    1.00
  201                  CONDUIT     0.028     0  01:59      0.27    0.07    1.00
  202                  CONDUIT     0.056     0  01:56      0.29    0.13    1.00
  203                  CONDUIT     0.081     0  01:56      0.32    0.19    1.00
  204                  CONDUIT     0.105     0  01:56      0.34    0.24    1.00
  205                  CONDUIT     0.128     0  01:56      0.37    0.29    1.00
  206                  CONDUIT     0.152     0  01:56      0.39    0.35    1.00
  207                  CONDUIT     0.176     0  01:56      0.39    0.40    1.00
  208                  CONDUIT     0.195     0  01:56      0.37    0.45    1.00
  209                  CONDUIT     0.216     0  01:56      0.33    0.50    1.00
  210                  CONDUIT     0.234     0  01:56      0.30    0.54    1.00
  211                  CONDUIT     0.034     0  02:04      0.27    0.08    1.00
  212                  CONDUIT     0.070     0  01:58      0.29    0.16    1.00
  213                  CONDUIT     0.098     0  01:58      0.32    0.23    1.00
  214                  CONDUIT     0.122     0  01:58      0.34    0.28    1.00
  215                  CONDUIT     0.145     0  01:58      0.37    0.33    1.00
  216                  CONDUIT     0.165     0  01:58      0.39    0.38    1.00
  217                  CONDUIT     0.182     0  01:58      0.39    0.42    1.00
  218                  CONDUIT     0.197     0  01:58      0.37    0.45    1.00
  219                  CONDUIT     0.224     0  01:58      0.33    0.51    1.00
  220                  CONDUIT     0.237     0  01:58      0.30    0.54    1.00
  221                  CONDUIT     0.089     0  02:01      0.27    0.20    1.00
  222                  CONDUIT     0.193     0  02:01      0.29    0.44    1.00
  223                  CONDUIT     0.246     0  02:00      0.32    0.56    1.00
  224                  CONDUIT     0.267     0  02:00      0.34    0.61    1.00
  225                  CONDUIT     0.259     0  01:59      0.37    0.59    1.00
  226                  CONDUIT     0.242     0  01:59      0.38    0.56    1.00
  227                  CONDUIT     0.234     0  01:59      0.39    0.54    1.00
  228                  CONDUIT     0.221     0  02:04      0.36    0.51    1.00
  229                  CONDUIT     0.243     0  02:04      0.32    0.56    1.00
  230                  CONDUIT     0.260     0  02:04      0.33    0.60    1.00
  231                  CONDUIT     0.198     0  01:55      0.28    0.46    1.00
  232                  CONDUIT     0.382     0  06:00      0.49    0.88    1.00
  233                  CONDUIT     0.573     0  06:00      0.73    1.32    1.00
  234                  CONDUIT     0.764     0  06:00      0.97    1.75    1.00
  235                  CONDUIT     0.956     0  06:00      1.22    2.19    1.00
  236                  CONDUIT     1.147     0  06:00      1.46    2.63    1.00
  237                  CONDUIT     1.338     0  06:00      1.70    3.07    1.00
  238                  CONDUIT     1.529     0  06:00      1.95    3.51    1.00
  239                  CONDUIT     1.720     0  06:00      2.19    3.95    1.00
  240                  CONDUIT     1.911     0  06:00      2.43    4.39    1.00
  341                  CONDUIT     2.102     0  06:00      2.68   61.81    1.00
  342                  CONDUIT     0.087     0  05:59      0.37    0.20    1.00
  
  
  ***************************
  Flow Classification Summary
  ***************************
  
  -------------------------------------------------------------------------------------
                      Adjusted    ---------- Fraction of Time in Flow Class ---------- 
                       /Actual         Up    Down  Sub   Sup   Up    Down  Norm  Inlet 
  Conduit               Length    Dry  Dry   Dry   Crit  Crit  Crit  Crit  Ltd   Ctrl  
  -------------------------------------------------------------------------------------
  121                     1.00   0.00  0.00  0.00  1.00  0.00  0.00  0.00  0.00  0.00
  122                     1.00   0.00  0.00  0.00  1.00  0.00  0.00  0.00  0.00  0.00
  123                     1.00   0.00  0.00  0.00  1.00  0.00  0.00  0.00  0.00  0.00
  124                     1.00   0.00  0.00  0.00  1.00  0.00  0.00  0.00  0.00  0.00
  125                     1.00   0.00  0.00  0.00  1.00  0.00  0.00  0.00  0.00  0.00
  126                     1.00   0.00  0.00  0.00  1.00  0.00  0.00  0.00  0.00  0.00
  127                     1.00   0.00  0.00  0.00  1.00  0.00  0.00  0.00  0.00  0.00
  128                     1.00   0.00  0.00  0.00  1.00  0.00  0.00  0.00  0.00  0.00
  129                     1.00   0.00  0.00  0.00  1.00  0.00  0.00  0.00  0.00  0.00
  130                     1.00   0.00  0.00  0.00  1.00  0.00  0.00  0.00  0.00  0.00
  131                     1.00   0.00  0.00  0.00  1.00  0.00  0.00  0.00  0.00  0.00
  132                     1.00   0.00  0.00  0.00  1.00  0.00  0.00  0.00  0.00  0.00
  133                     1.00   0.00  0.00  0.00  1.00  0.00  0.00  0.00  0.00  0.00
  134                     1.00   0.00  0.00  0.00  1.00  0.00  0.00  0.00  0.00  0.00
  135                     1.00   0.00  0.00  0.00  1.00  0.00  0.00  0.00  0.00  0.00
  136                     1.00   0.00  0.00  0.00  1.00  0.00  0.00  0.00  0.00  0.00
  137                     1.00   0.00  0.00  0.00  1.00  0.00  0.00  0.00  0.00  0.00
  138                     1.00   0.00  0.00  0.00  1.00  0.00  0.00  0.00  0.00  0.00
  139                     1.00   0.00  0.00  0.00  1.00  0.00  0.00  0.00  0.00  0.00
  140                     1.00   0.00  0.00  0.00  1.00  0.00  0.00  0.00  0.00  0.00
  141                     1.00   0.00  0.00  0.00  1.00  0.00  0.00  0.00  0.00  0.00
  142                     1.00   0.00  0.00  0.00  1.00  0.00  0.00  0.00  0.00  0.00
  143                     1.00   0.00  0.00  0.00  1.00  0.00  0.00  0.00  0.00  0.00
  144                     1.00   0.00  0.00  0.00  1.00  0.00  0.00  0.00  0.00  0.00
  145                     1.00   0.00  0.00  0.00  1.00  0.00  0.00  0.00  0.00  0.00
  146                     1.00   0.00  0.00  0.00  1.00  0.00  0.00  0.00  0.00  0.00
  147                     1.00   0.00  0.00  0.00  1.00  0.00  0.00  0.00  0.00  0.00
  148                     1.00   0.00  0.00  0.00  1.00  0.00  0.00  0.00  0.00  0.00
  149                     1.00   0.00  0.00  0.00  1.00  0.00  0.00  0.00  0.00  0.00
  150                     1.00   0.00  0.00  0.00  1.00  0.00  0.00  0.00  0.00  0.00
  151                     1.00   0.00  0.00  0.00  1.00  0.00  0.00  0.00  0.00  0.00
  152                     1.00   0.00  0.00  0.00  1.00  0.00  0.00  0.00  0.00  0.00
  153                     1.00   0.00  0.00  0.00  1.00  0.00  0.00  0.00  0.00  0.00
  154                     1.00   0.00  0.00  0.00  1.00  0.00  0.00  0.00  0.00  0.00
  156                     1.00   0.00  0.00  0.00  1.00  0.00  0.00  0.00  0.00  0.00
  157                     1.00   0.00  0.00  0.00  1.00  0.00  0.00  0.00  0.00  0.00
  158                     1.00   0.00  0.00  0.00  1.00  0.00  0.00  0.00  0.00  0.00
  159                     1.00   0.00  0.00  0.00  1.00  0.00  0.00  0.00  0.00  0.00
  160                     1.00   0.00  0.00  0.00  1.00  0.00  0.00  0.00  0.00  0.00
  161                     1.00   0.00  0.00  0.00  1.00  0.00  0.00  0.00  0.00  0.00
  162                     1.00   0.00  0.00  0.00  1.00  0.00  0.00  0.00  0.00  0.00
  163                     1.00   0.00  0.00  0.00  1.00  0.00  0.00  0.00  0.00  0.00
  164                     1.00   0.00  0.00  0.00  1.00  0.00  0.00  0.00  0.00  0.00
  165                     1.00   0.00  0.00  0.00  1.00  0.00  0.00  0.00  0.00  0.00
  166                     1.00   0.00  0.00  0.00  1.00  0.00  0.00  0.00  0.00  0.00
  167                     1.00   0.00  0.00  0.00  1.00  0.00  0.00  0.00  0.00  0.00
  168                     1.00   0.00  0.00  0.00  1.00  0.00  0.00  0.00  0.00  0.00
  169                     1.00   0.00  0.00  0.00  1.00  0.00  0.00  0.00  0.00  0.00
  170                     1.00   0.00  0.00  0.00  1.00  0.00  0.00  0.00  0.00  0.00
  171                     1.00   0.00  0.00  0.00  1.00  0.00  0.00  0.00  0.00  0.00
  172                     1.00   0.00  0.00  0.00  1.00  0.00  0.00  0.00  0.00  0.00
  173                     1.00   0.00  0.00  0.00  1.00  0.00  0.00  0.00  0.00  0.00
  174                     1.00   0.00  0.00  0.00  1.00  0.00  0.00  0.00  0.00  0.00
  175                     1.00   0.00  0.00  0.00  1.00  0.00  0.00  0.00  0.00  0.00
  176                     1.00   0.00  0.00  0.00  1.00  0.00  0.00  0.00  0.00  0.00
  177                     1.00   0.00  0.00  0.00  1.00  0.00  0.00  0.00  0.00  0.00
  178                     1.00   0.00  0.00  0.00  1.00  0.00  0.00  0.00  0.00  0.00
  179                     1.00   0.00  0.00  0.00  1.00  0.00  0.00  0.00  0.00  0.00
  180                     1.00   0.00  0.00  0.00  1.00  0.00  0.00  0.00  0.00  0.00
  181                     1.00   0.00  0.00  0.00  1.00  0.00  0.00  0.00  0.00  0.00
  182                     1.00   0.00  0.00  0.00  1.00  0.00  0.00  0.00  0.00  0.00
  183                     1.00   0.00  0.00  0.00  1.00  0.00  0.00  0.00  0.00  0.00
  184                     1.00   0.00  0.00  0.00  1.00  0.00  0.00  0.00  0.00  0.00
  185                     1.00   0.00  0.00  0.00  1.00  0.00  0.00  0.00  0.00  0.00
  186                     1.00   0.00  0.00  0.00  1.00  0.00  0.00  0.00  0.00  0.00
  187                     1.00   0.00  0.00  0.00  1.00  0.00  0.00  0.00  0.00  0.00
  188                     1.00   0.00  0.00  0.00  1.00  0.00  0.00  0.00  0.00  0.00
  189                     1.00   0.00  0.00  0.00  1.00  0.00  0.00  0.00  0.00  0.00
  190                     1.00   0.00  0.00  0.00  1.00  0.00  0.00  0.00  0.00  0.00
  191                     1.00   0.00  0.00  0.00  1.00  0.00  0.00  0.00  0.00  0.00
  192                     1.00   0.00  0.00  0.00  1.00  0.00  0.00  0.00  0.00  0.00
  193                     1.00   0.00  0.00  0.00  1.00  0.00  0.00  0.00  0.00  0.00
  194                     1.00   0.00  0.00  0.00  1.00  0.00  0.00  0.00  0.00  0.00
  195                     1.00   0.00  0.00  0.00  1.00  0.00  0.00  0.00  0.00  0.00
  196                     1.00   0.00  0.00  0.00  1.00  0.00  0.00  0.00  0.00  0.00
  197                     1.00   0.00  0.00  0.00  1.00  0.00  0.00  0.00  0.00  0.00
  198                     1.00   0.00  0.00  0.00  1.00  0.00  0.00  0.00  0.00  0.00
  199                     1.00   0.00  0.00  0.00  1.00  0.00  0.00  0.00  0.00  0.00
  200                     1.00   0.00  0.00  0.00  1.00  0.00  0.00  0.00  0.00  0.00
  201                     1.00   0.00  0.00  0.00  1.00  0.00  0.00  0.00  0.00  0.00
  202                     1.00   0.00  0.00  0.00  1.00  0.00  0.00  0.00  0.00  0.00
  203                     1.00   0.00  0.00  0.00  1.00  0.00  0.00  0.00  0.00  0.00
  204                     1.00   0.00  0.00  0.00  1.00  0.00  0.00  0.00  0.00  0.00
  205                     1.00   0.00  0.00  0.00  1.00  0.00  0.00  0.00  0.00  0.00
  206                     1.00   0.00  0.00  0.00  1.00  0.00  0.00  0.00  0.00  0.00
  207                     1.00   0.00  0.00  0.00  1.00  0.00  0.00  0.00  0.00  0.00
  208                     1.00   0.00  0.00  0.00  1.00  0.00  0.00  0.00  0.00  0.00
  209                     1.00   0.00  0.00  0.00  1.00  0.00  0.00  0.00  0.00  0.00
  210                     1.00   0.00  0.00  0.00  1.00  0.00  0.00  0.00  0.00  0.00
  211                     1.00   0.00  0.00  0.00  1.00  0.00  0.00  0.00  0.00  0.00
  212                     1.00   0.00  0.00  0.00  1.00  0.00  0.00  0.00  0.00  0.00
  213                     1.00   0.00  0.00  0.00  1.00  0.00  0.00  0.00  0.00  0.00
  214                     1.00   0.00  0.00  0.00  1.00  0.00  0.00  0.00  0.00  0.00
  215                     1.00   0.00  0.00  0.00  1.00  0.00  0.00  0.00  0.00  0.00
  216                     1.00   0.00  0.00  0.00  1.00  0.00  0.00  0.00  0.00  0.00
  217                     1.00   0.00  0.00  0.00  1.00  0.00  0.00  0.00  0.00  0.00
  218                     1.00   0.00  0.00  0.00  1.00  0.00  0.00  0.00  0.00  0.00
  219                     1.00   0.00  0.00  0.00  1.00  0.00  0.00  0.00  0.00  0.00
  220                     1.00   0.00  0.00  0.00  1.00  0.00  0.00  0.00  0.00  0.00
  221                     1.00   0.00  0.00  0.00  1.00  0.00  0.00  0.00  0.00  0.00
  222                     1.00   0.00  0.00  0.00  1.00  0.00  0.00  0.00  0.00  0.00
  223                     1.00   0.00  0.00  0.00  1.00  0.00  0.00  0.00  0.00  0.00
  224                     1.00   0.00  0.00  0.00  1.00  0.00  0.00  0.00  0.00  0.00
  225                     1.00   0.00  0.00  0.00  1.00  0.00  0.00  0.00  0.00  0.00
  226                     1.00   0.00  0.00  0.00  1.00  0.00  0.00  0.00  0.00  0.00
  227                     1.00   0.00  0.00  0.00  1.00  0.00  0.00  0.00  0.00  0.00
  228                     1.00   0.00  0.00  0.00  1.00  0.00  0.00  0.00  0.00  0.00
  229                     1.00   0.00  0.00  0.00  1.00  0.00  0.00  0.00  0.00  0.00
  230                     1.00   0.00  0.00  0.00  1.00  0.00  0.00  0.00  0.00  0.00
  231                     1.00   0.00  0.00  0.00  1.00  0.00  0.00  0.00  0.00  0.00
  232                     1.00   0.00  0.00  0.00  1.00  0.00  0.00  0.00  0.00  0.00
  233                     1.00   0.00  0.00  0.00  1.00  0.00  0.00  0.00  0.00  0.00
  234                     1.00   0.00  0.00  0.00  1.00  0.00  0.00  0.00  0.00  0.00
  235                     1.00   0.00  0.00  0.00  1.00  0.00  0.00  0.00  0.00  0.00
  236                     1.00   0.00  0.00  0.00  1.00  0.00  0.00  0.00  0.00  0.00
  237                     1.00   0.00  0.00  0.00  1.00  0.00  0.00  0.00  0.00  0.00
  238                     1.00   0.00  0.00  0.00  1.00  0.00  0.00  0.00  0.00  0.00
  239                     1.00   0.00  0.00  0.00  1.00  0.00  0.00  0.00  0.00  0.00
  240                     1.00   0.00  0.00  0.00  1.00  0.00  0.00  0.00  0.00  0.00
  341                     1.00   0.00  0.00  0.00  1.00  0.00  0.00  0.00  0.00  0.00
  342                     1.00   0.00  0.00  0.00  1.00  0.00  0.00  0.00  0.00  0.00
  
  
  *************************
  Conduit Surcharge Summary
  *************************
  
  ----------------------------------------------------------------------------
                                                           Hours        Hours 
                         --------- Hours Full --------   Above Full   Capacity
  Conduit                Both Ends  Upstream  Dnstream   Normal Flow   Limited
  ----------------------------------------------------------------------------
  121                         4.18      4.18      4.19      0.01         0.01
  122                         4.19      4.19      4.20      0.01         0.01
  123                         4.20      4.20      4.21      0.01         0.01
  124                         4.21      4.21      4.23      0.01         0.01
  125                         4.23      4.23      4.26      0.01         0.01
  126                         4.26      4.26      4.29      0.01         0.01
  127                         4.29      4.29      4.33      0.01         0.01
  128                         4.33      4.33      4.38      0.01         0.01
  129                         4.38      4.38      4.44      0.01         0.01
  130                         4.44      4.44      4.50      0.01         0.01
  131                         4.20      4.20      4.20      0.01         0.01
  132                         4.20      4.20      4.22      0.01         0.01
  133                         4.22      4.22      4.24      0.01         0.01
  134                         4.24      4.24      4.26      0.01         0.01
  135                         4.26      4.26      4.29      0.01         0.01
  136                         4.29      4.29      4.33      0.01         0.01
  137                         4.33      4.33      4.38      0.01         0.01
  138                         4.38      4.38      4.44      0.01         0.01
  139                         4.44      4.44      4.50      0.01         0.01
  140                         4.50      4.50      4.57      0.01         0.01
  141                         4.21      4.21      4.22      0.01         0.01
  142                         4.22      4.22      4.24      0.01         0.01
  143                         4.24      4.24      4.26      0.01         0.01
  144                         4.26      4.26      4.30      0.01         0.01
  145                         4.30      4.30      4.33      0.01         0.01
  146                         4.33      4.33      4.38      0.01         0.01
  147                         4.38      4.38      4.43      0.01         0.01
  148                         4.43      4.43      4.50      0.01         0.01
  149                         4.50      4.50      4.57      0.01         0.01
  150                         4.57      4.57      4.65      0.01         0.01
  151                         4.23      4.23      4.25      0.01         0.01
  152                         4.25      4.25      4.27      0.01         0.01
  153                         4.27      4.27      4.30      0.01         0.01
  154                         4.30      4.30      4.33      0.01         0.01
  156                         4.38      4.38      4.43      0.01         0.01
  157                         4.43      4.43      4.50      0.01         0.01
  158                         4.50      4.50      4.57      0.01         0.01
  159                         4.57      4.57      4.65      0.01         0.01
  160                         4.65      4.65      4.73      0.01         0.01
  161                         4.24      4.24      4.27      0.01         0.01
  162                         4.27      4.27      4.29      0.01         0.01
  163                         4.29      4.29      4.33      0.01         0.01
  164                         4.33      4.33      4.37      0.01         0.01
  165                         4.37      4.37      4.42      0.01         0.01
  166                         4.42      4.42      4.48      0.01         0.01
  167                         4.48      4.48      4.55      0.01         0.01
  168                         4.55      4.55      4.63      0.01         0.01
  169                         4.63      4.63      4.71      0.01         0.01
  170                         4.71      4.71      4.80      0.01         0.01
  171                         4.25      4.25      4.28      0.01         0.01
  172                         4.28      4.28      4.31      0.01         0.01
  173                         4.31      4.31      4.35      0.01         0.01
  174                         4.35      4.35      4.40      0.01         0.01
  175                         4.40      4.40      4.46      0.01         0.01
  176                         4.46      4.46      4.52      0.01         0.01
  177                         4.52      4.52      4.59      0.01         0.01
  178                         4.59      4.59      4.68      0.01         0.01
  179                         4.68      4.68      4.75      0.01         0.01
  180                         4.75      4.75      4.85      0.01         0.01
  181                         4.25      4.25      4.28      0.01         0.01
  182                         4.28      4.28      4.31      0.01         0.01
  183                         4.31      4.31      4.36      0.01         0.01
  184                         4.36      4.36      4.41      0.01         0.01
  185                         4.41      4.41      4.47      0.01         0.01
  186                         4.47      4.47      4.54      0.01         0.01
  187                         4.54      4.54      4.61      0.01         0.01
  188                         4.61      4.61      4.70      0.01         0.01
  189                         4.70      4.70      4.78      0.01         0.01
  190                         4.78      4.78      4.87      0.01         0.01
  191                         4.22      4.22      4.25      0.01         0.01
  192                         4.25      4.25      4.29      0.01         0.01
  193                         4.29      4.29      4.33      0.01         0.01
  194                         4.33      4.33      4.39      0.01         0.01
  195                         4.39      4.39      4.45      0.01         0.01
  196                         4.45      4.45      4.52      0.01         0.01
  197                         4.52      4.52      4.60      0.01         0.01
  198                         4.60      4.60      4.68      0.01         0.01
  199                         4.68      4.68      4.77      0.01         0.01
  200                         4.77      4.77      4.86      0.01         0.01
  201                         4.16      4.16      4.19      0.01         0.01
  202                         4.19      4.19      4.21      0.01         0.01
  203                         4.21      4.21      4.26      0.01         0.01
  204                         4.26      4.26      4.31      0.01         0.01
  205                         4.31      4.31      4.38      0.01         0.01
  206                         4.38      4.38      4.45      0.01         0.01
  207                         4.45      4.45      4.54      0.01         0.01
  208                         4.54      4.54      4.62      0.01         0.01
  209                         4.62      4.62      4.72      0.01         0.01
  210                         4.72      4.72      4.82      0.01         0.01
  211                         4.08      4.08      4.08      0.01         0.01
  212                         4.08      4.08      4.10      0.01         0.01
  213                         4.10      4.10      4.12      0.01         0.01
  214                         4.12      4.12      4.15      0.01         0.01
  215                         4.15      4.15      4.21      0.01         0.01
  216                         4.21      4.21      4.28      0.01         0.01
  217                         4.28      4.28      4.38      0.01         0.01
  218                         4.38      4.38      4.47      0.01         0.01
  219                         4.47      4.47      4.58      0.01         0.01
  220                         4.58      4.58      4.70      0.01         0.01
  221                         3.97      3.97      3.98      0.01         0.01
  222                         3.98      3.98      3.98      0.01         0.01
  223                         3.98      3.98      3.99      0.01         0.01
  224                         3.99      3.99      4.01      0.01         0.01
  225                         4.01      4.01      4.02      0.01         0.01
  226                         4.02      4.02      4.04      0.01         0.01
  227                         4.04      4.04      4.07      0.01         0.02
  228                         4.07      4.07      4.11      0.01         0.01
  229                         4.11      4.11      4.20      0.01         0.01
  230                         4.20      4.20      4.33      0.01         0.01
  231                         4.50      4.50      4.57      0.01         0.01
  232                         4.57      4.57      4.65      0.01         0.01
  233                         4.65      4.65      4.73      4.08         4.08
  234                         4.73      4.73      4.80      4.13         4.14
  235                         4.80      4.80      4.85      4.16         4.17
  236                         4.85      4.85      4.87      4.31         4.29
  237                         4.86      4.87      4.86      5.15         4.87
  238                         4.82      4.86      4.82      5.24         4.84
  239                         4.70      4.82      4.70      5.32         4.77
  240                         4.33      4.70      4.33      5.38         4.56
  341                         0.01      4.33      0.01      5.84         4.03
  342                         4.33      4.33      4.38      0.01         0.01
  

  Analysis begun on:  Wed Dec 14 08:44:51 2022
  Analysis ended on:  Wed Dec 14 08:44:52 2022
  Total elapsed time: 00:00:01