
  EPA STORM WATER MANAGEMENT MODEL - VERSION 5.1 (Build 5.1.015)
  --------------------------------------------------------------

  WARNING 04: minimum elevation drop used for Conduit 241
  
  *********************************************************
  NOTE: The summary statistics displayed in this report are
  based on results found at every computational time step,  
  not just on results from each reporting time step.
  *********************************************************
  
  ****************
  Analysis Options
  ****************
  Flow Units ............... CMS
  Process Models:
    Rainfall/Runoff ........ NO
    RDII ................... NO
    Snowmelt ............... NO
    Groundwater ............ NO
    Flow Routing ........... YES
    Ponding Allowed ........ NO
    Water Quality .......... NO
  Flow Routing Method ...... DYNWAVE
  Surcharge Method ......... SLOT
  Starting Date ............ 10/31/2022 00:00:00
  Ending Date .............. 10/31/2022 06:00:00
  Antecedent Dry Days ...... 0.0
  Report Time Step ......... 00:00:10
  Routing Time Step ........ 1.00 sec
  Variable Time Step ....... NO
  Maximum Trials ........... 8
  Number of Threads ........ 6
  Head Tolerance ........... 0.001500 m
  
  
  **************************        Volume        Volume
  Flow Routing Continuity        hectare-m      10^6 ltr
  **************************     ---------     ---------
  Dry Weather Inflow .......         0.000         0.000
  Wet Weather Inflow .......         0.000         0.000
  Groundwater Inflow .......         0.000         0.000
  RDII Inflow ..............         0.000         0.000
  External Inflow ..........         4.541        45.406
  External Outflow .........         3.008        30.077
  Flooding Loss ............         0.000         0.000
  Evaporation Loss .........         0.000         0.000
  Exfiltration Loss ........         0.000         0.000
  Initial Stored Volume ....         0.000         0.000
  Final Stored Volume ......         1.534        15.335
  Continuity Error (%) .....        -0.015
  
  
  *************************
  Highest Continuity Errors
  *************************
  Node A09 (15.94%)
  Node J00 (15.94%)
  Node K00 (13.77%)
  Node A10 (13.77%)
  Node A08 (13.30%)
  
  
  ********************************
  Highest Flow Instability Indexes
  ********************************
  All links are stable.
  
  
  *************************
  Routing Time Step Summary
  *************************
  Minimum Time Step           :     1.00 sec
  Average Time Step           :     1.00 sec
  Maximum Time Step           :     1.00 sec
  Percent in Steady State     :     0.00
  Average Iterations per Step :     2.00
  Percent Not Converging      :     0.00
  
  
  ******************
  Node Depth Summary
  ******************
  
  ---------------------------------------------------------------------------------
                                 Average  Maximum  Maximum  Time of Max    Reported
                                   Depth    Depth      HGL   Occurrence   Max Depth
  Node                 Type       Meters   Meters   Meters  days hr:min      Meters
  ---------------------------------------------------------------------------------
  A00                  JUNCTION     0.19     0.40     1.40     0  06:00        0.40
  A01                  JUNCTION     0.22     0.45     1.40     0  06:00        0.45
  A02                  JUNCTION     0.26     0.50     1.40     0  06:00        0.50
  A03                  JUNCTION     0.30     0.55     1.40     0  06:00        0.55
  A04                  JUNCTION     0.34     0.60     1.40     0  06:00        0.60
  A05                  JUNCTION     0.38     0.65     1.40     0  06:00        0.65
  A06                  JUNCTION     0.42     0.70     1.40     0  06:00        0.70
  A07                  JUNCTION     0.46     0.75     1.40     0  06:00        0.75
  A08                  JUNCTION     0.50     0.80     1.40     0  06:00        0.80
  A09                  JUNCTION     0.55     0.85     1.40     0  06:00        0.85
  A10                  JUNCTION     0.60     0.90     1.40     0  06:00        0.90
  B00                  JUNCTION     0.22     0.45     1.40     0  06:00        0.45
  B01                  JUNCTION     0.27     0.50     1.40     0  06:00        0.50
  B02                  JUNCTION     0.30     0.55     1.40     0  06:00        0.55
  B03                  JUNCTION     0.34     0.60     1.40     0  06:00        0.60
  B04                  JUNCTION     0.38     0.65     1.40     0  06:00        0.65
  B05                  JUNCTION     0.42     0.70     1.40     0  06:00        0.70
  B06                  JUNCTION     0.46     0.75     1.40     0  06:00        0.75
  B07                  JUNCTION     0.51     0.80     1.40     0  06:00        0.80
  B08                  JUNCTION     0.55     0.85     1.40     0  06:00        0.85
  B09                  JUNCTION     0.60     0.90     1.40     0  06:00        0.90
  B10                  JUNCTION     0.65     0.95     1.40     0  06:00        0.95
  C00                  JUNCTION     0.26     0.50     1.40     0  06:00        0.50
  C01                  JUNCTION     0.30     0.55     1.40     0  06:00        0.55
  C02                  JUNCTION     0.34     0.60     1.40     0  06:00        0.60
  C03                  JUNCTION     0.39     0.65     1.40     0  06:00        0.65
  C04                  JUNCTION     0.43     0.70     1.40     0  06:00        0.70
  C05                  JUNCTION     0.47     0.75     1.40     0  06:00        0.75
  C06                  JUNCTION     0.51     0.80     1.40     0  06:00        0.80
  C07                  JUNCTION     0.55     0.85     1.40     0  06:00        0.85
  C08                  JUNCTION     0.60     0.90     1.40     0  06:00        0.90
  C09                  JUNCTION     0.65     0.95     1.40     0  06:00        0.95
  C10                  JUNCTION     0.70     1.00     1.40     0  06:00        1.00
  D00                  JUNCTION     0.30     0.55     1.40     0  06:00        0.55
  D01                  JUNCTION     0.34     0.60     1.40     0  06:00        0.60
  D02                  JUNCTION     0.39     0.65     1.40     0  06:00        0.65
  D03                  JUNCTION     0.43     0.70     1.40     0  06:00        0.70
  D04                  JUNCTION     0.47     0.75     1.40     0  06:00        0.75
  D05                  JUNCTION     0.51     0.80     1.40     0  06:00        0.80
  D06                  JUNCTION     0.55     0.85     1.40     0  06:00        0.85
  D07                  JUNCTION     0.60     0.90     1.40     0  06:00        0.90
  D08                  JUNCTION     0.65     0.95     1.40     0  06:00        0.95
  D09                  JUNCTION     0.69     1.00     1.40     0  06:00        1.00
  D10                  JUNCTION     0.74     1.05     1.40     0  06:00        1.05
  E00                  JUNCTION     0.34     0.60     1.40     0  06:00        0.60
  E01                  JUNCTION     0.38     0.65     1.40     0  06:00        0.65
  E02                  JUNCTION     0.43     0.70     1.40     0  06:00        0.70
  E03                  JUNCTION     0.47     0.75     1.40     0  06:00        0.75
  E04                  JUNCTION     0.51     0.80     1.40     0  06:00        0.80
  E05                  JUNCTION     0.56     0.85     1.40     0  06:00        0.85
  E06                  JUNCTION     0.60     0.89     1.39     0  06:00        0.89
  E07                  JUNCTION     0.64     0.94     1.39     0  06:00        0.94
  E08                  JUNCTION     0.69     0.99     1.39     0  06:00        0.99
  E09                  JUNCTION     0.74     1.04     1.39     0  06:00        1.04
  E10                  JUNCTION     0.79     1.09     1.39     0  06:00        1.09
  F00                  JUNCTION     0.38     0.65     1.40     0  06:00        0.65
  F01                  JUNCTION     0.42     0.70     1.40     0  06:00        0.70
  F02                  JUNCTION     0.47     0.75     1.40     0  06:00        0.75
  F03                  JUNCTION     0.51     0.80     1.40     0  06:00        0.80
  F04                  JUNCTION     0.56     0.85     1.40     0  06:00        0.85
  F05                  JUNCTION     0.60     0.89     1.39     0  06:00        0.89
  F06                  JUNCTION     0.64     0.94     1.39     0  06:00        0.94
  F07                  JUNCTION     0.69     0.99     1.39     0  06:00        0.99
  F08                  JUNCTION     0.74     1.04     1.39     0  06:00        1.04
  F09                  JUNCTION     0.78     1.09     1.39     0  06:00        1.09
  F10                  JUNCTION     0.83     1.14     1.39     0  06:00        1.14
  G00                  JUNCTION     0.42     0.70     1.40     0  06:00        0.70
  G01                  JUNCTION     0.46     0.75     1.40     0  06:00        0.75
  G02                  JUNCTION     0.51     0.80     1.40     0  06:00        0.80
  G03                  JUNCTION     0.55     0.85     1.40     0  06:00        0.85
  G04                  JUNCTION     0.60     0.89     1.39     0  06:00        0.89
  G05                  JUNCTION     0.64     0.94     1.39     0  06:00        0.94
  G06                  JUNCTION     0.69     0.99     1.39     0  06:00        0.99
  G07                  JUNCTION     0.73     1.04     1.39     0  06:00        1.04
  G08                  JUNCTION     0.78     1.09     1.39     0  06:00        1.09
  G09                  JUNCTION     0.83     1.14     1.39     0  06:00        1.14
  G10                  JUNCTION     0.88     1.19     1.39     0  06:00        1.19
  H00                  JUNCTION     0.46     0.75     1.40     0  06:00        0.75
  H01                  JUNCTION     0.51     0.80     1.40     0  06:00        0.80
  H02                  JUNCTION     0.55     0.85     1.40     0  06:00        0.85
  H03                  JUNCTION     0.60     0.90     1.40     0  06:00        0.90
  H04                  JUNCTION     0.64     0.94     1.39     0  06:00        0.94
  H05                  JUNCTION     0.69     0.99     1.39     0  06:00        0.99
  H06                  JUNCTION     0.73     1.04     1.39     0  06:00        1.04
  H07                  JUNCTION     0.78     1.09     1.39     0  06:00        1.09
  H08                  JUNCTION     0.82     1.14     1.39     0  06:00        1.14
  H09                  JUNCTION     0.87     1.18     1.38     0  06:00        1.18
  H10                  JUNCTION     0.92     1.23     1.38     0  06:00        1.23
  I00                  JUNCTION     0.50     0.80     1.40     0  06:00        0.80
  I01                  JUNCTION     0.55     0.85     1.40     0  06:00        0.85
  I02                  JUNCTION     0.60     0.90     1.40     0  06:00        0.90
  I03                  JUNCTION     0.65     0.95     1.40     0  06:00        0.95
  I04                  JUNCTION     0.69     0.99     1.39     0  06:00        0.99
  I05                  JUNCTION     0.74     1.04     1.39     0  06:00        1.04
  I06                  JUNCTION     0.78     1.09     1.39     0  06:00        1.09
  I07                  JUNCTION     0.82     1.14     1.39     0  06:00        1.14
  I08                  JUNCTION     0.87     1.18     1.38     0  06:00        1.18
  I09                  JUNCTION     0.91     1.23     1.38     0  06:00        1.23
  I10                  JUNCTION     0.96     1.27     1.37     0  06:00        1.27
  J00                  JUNCTION     0.55     0.85     1.40     0  06:00        0.85
  J01                  JUNCTION     0.60     0.90     1.40     0  06:00        0.90
  J02                  JUNCTION     0.65     0.95     1.40     0  06:00        0.95
  J03                  JUNCTION     0.69     1.00     1.40     0  06:00        1.00
  J04                  JUNCTION     0.74     1.04     1.39     0  06:00        1.04
  J05                  JUNCTION     0.78     1.09     1.39     0  06:00        1.09
  J06                  JUNCTION     0.83     1.14     1.39     0  06:00        1.14
  J07                  JUNCTION     0.87     1.18     1.38     0  06:00        1.18
  J08                  JUNCTION     0.91     1.23     1.38     0  06:00        1.23
  J09                  JUNCTION     0.95     1.26     1.36     0  06:00        1.26
  J10                  JUNCTION     0.99     1.30     1.35     0  06:00        1.30
  K00                  JUNCTION     0.60     0.90     1.40     0  06:00        0.90
  K01                  JUNCTION     0.65     0.95     1.40     0  06:00        0.95
  K02                  JUNCTION     0.70     1.00     1.40     0  06:00        1.00
  K03                  JUNCTION     0.74     1.05     1.40     0  06:00        1.05
  K04                  JUNCTION     0.79     1.09     1.39     0  06:00        1.09
  K05                  JUNCTION     0.83     1.14     1.39     0  06:00        1.14
  K06                  JUNCTION     0.88     1.19     1.39     0  06:00        1.19
  K07                  JUNCTION     0.92     1.23     1.38     0  06:00        1.23
  K08                  JUNCTION     0.96     1.27     1.37     0  06:00        1.27
  K09                  JUNCTION     0.99     1.30     1.35     0  06:00        1.30
  K10                  JUNCTION     0.99     1.26     1.26     0  06:00        1.26
  Outfall              OUTFALL      0.66     0.79     0.79     0  06:00        0.79
  
  
  *******************
  Node Inflow Summary
  *******************
  
  -------------------------------------------------------------------------------------------------
                                  Maximum  Maximum                  Lateral       Total        Flow
                                  Lateral    Total  Time of Max      Inflow      Inflow     Balance
                                   Inflow   Inflow   Occurrence      Volume      Volume       Error
  Node                 Type           CMS      CMS  days hr:min    10^6 ltr    10^6 ltr     Percent
  -------------------------------------------------------------------------------------------------
  A00                  JUNCTION     0.017    0.017     0  00:00       0.375       0.375       8.476
  A01                  JUNCTION     0.017    0.026     0  01:02       0.375       0.548      10.244
  A02                  JUNCTION     0.017    0.031     0  06:00       0.375       0.651       9.855
  A03                  JUNCTION     0.017    0.036     0  06:00       0.375       0.728       9.951
  A04                  JUNCTION     0.017    0.040     0  06:00       0.375       0.786      10.283
  A05                  JUNCTION     0.017    0.041     0  06:00       0.375       0.822      10.850
  A06                  JUNCTION     0.017    0.041     0  06:00       0.375       0.832      11.749
  A07                  JUNCTION     0.017    0.040     0  00:46       0.375       0.811      13.147
  A08                  JUNCTION     0.017    0.040     0  00:40       0.375       0.755      15.338
  A09                  JUNCTION     0.017    0.038     0  00:35       0.375       0.666      18.966
  A10                  JUNCTION     0.017    0.032     0  00:31       0.375       0.537      15.965
  B00                  JUNCTION     0.017    0.026     0  01:02       0.375       0.548      10.244
  B01                  JUNCTION     0.017    0.043     0  00:30       0.375       0.818      10.471
  B02                  JUNCTION     0.017    0.053     0  00:54       0.375       0.986       9.745
  B03                  JUNCTION     0.017    0.060     0  00:51       0.375         1.1       9.693
  B04                  JUNCTION     0.017    0.064     0  00:48       0.375        1.19       9.912
  B05                  JUNCTION     0.017    0.067     0  00:45       0.375        1.25      10.318
  B06                  JUNCTION     0.017    0.070     0  00:41       0.375        1.27      10.948
  B07                  JUNCTION     0.017    0.070     0  00:38       0.375        1.26      11.894
  B08                  JUNCTION     0.017    0.070     0  00:35       0.375        1.21      13.283
  B09                  JUNCTION     0.017    0.068     0  00:33       0.375        1.12      15.241
  B10                  JUNCTION     0.017    0.065     0  00:30       0.375        1.02      12.771
  C00                  JUNCTION     0.017    0.031     0  06:00       0.375       0.651       9.855
  C01                  JUNCTION     0.017    0.053     0  00:54       0.375       0.986       9.745
  C02                  JUNCTION     0.017    0.069     0  00:51       0.375        1.22       8.673
  C03                  JUNCTION     0.017    0.081     0  00:48       0.375        1.39       8.315
  C04                  JUNCTION     0.017    0.089     0  00:45       0.375        1.53       8.249
  C05                  JUNCTION     0.017    0.094     0  00:42       0.375        1.63       8.356
  C06                  JUNCTION     0.017    0.098     0  00:39       0.375        1.68       8.641
  C07                  JUNCTION     0.017    0.099     0  00:36       0.375        1.69       9.152
  C08                  JUNCTION     0.017    0.099     0  00:33       0.375        1.64       9.930
  C09                  JUNCTION     0.017    0.098     0  00:31       0.375        1.56      10.926
  C10                  JUNCTION     0.017    0.099     0  00:29       0.375        1.46       8.738
  D00                  JUNCTION     0.017    0.036     0  06:00       0.375       0.728       9.951
  D01                  JUNCTION     0.017    0.060     0  00:51       0.375         1.1       9.693
  D02                  JUNCTION     0.017    0.081     0  00:48       0.375        1.39       8.315
  D03                  JUNCTION     0.017    0.097     0  00:45       0.375        1.64       7.665
  D04                  JUNCTION     0.017    0.109     0  00:42       0.375        1.84       7.319
  D05                  JUNCTION     0.017    0.117     0  00:40       0.375           2       7.152
  D06                  JUNCTION     0.017    0.122     0  00:36       0.375        2.12       7.155
  D07                  JUNCTION     0.017    0.125     0  00:34       0.375        2.16       7.363
  D08                  JUNCTION     0.017    0.125     0  00:32       0.375        2.12       7.782
  D09                  JUNCTION     0.017    0.128     0  00:30       0.375        2.04       8.331
  D10                  JUNCTION     0.017    0.132     0  00:29       0.375        1.93       6.579
  E00                  JUNCTION     0.017    0.040     0  06:00       0.375       0.786      10.283
  E01                  JUNCTION     0.017    0.064     0  00:48       0.375        1.19       9.912
  E02                  JUNCTION     0.017    0.089     0  00:45       0.375        1.53       8.249
  E03                  JUNCTION     0.017    0.109     0  00:42       0.375        1.84       7.319
  E04                  JUNCTION     0.017    0.124     0  00:40       0.375        2.13       6.702
  E05                  JUNCTION     0.017    0.135     0  00:37       0.375         2.4       6.271
  E06                  JUNCTION     0.017    0.148     0  06:00       0.375        2.61       6.014
  E07                  JUNCTION     0.017    0.156     0  06:00       0.375        2.73       5.957
  E08                  JUNCTION     0.017    0.155     0  06:00       0.375        2.73       6.098
  E09                  JUNCTION     0.017    0.153     0  00:29       0.375        2.62       6.441
  E10                  JUNCTION     0.017    0.162     0  00:28       0.375        2.46       5.146
  F00                  JUNCTION     0.017    0.041     0  06:00       0.375       0.822      10.850
  F01                  JUNCTION     0.017    0.067     0  00:45       0.375        1.25      10.318
  F02                  JUNCTION     0.017    0.094     0  00:42       0.375        1.63       8.356
  F03                  JUNCTION     0.017    0.117     0  00:40       0.375           2       7.152
  F04                  JUNCTION     0.017    0.135     0  00:37       0.375         2.4       6.271
  F05                  JUNCTION     0.017    0.162     0  06:00       0.375         2.8       5.584
  F06                  JUNCTION     0.017    0.189     0  06:00       0.375        3.17       5.078
  F07                  JUNCTION     0.017    0.207     0  06:00       0.375        3.44       4.768
  F08                  JUNCTION     0.017    0.211     0  06:00       0.375        3.53       4.706
  F09                  JUNCTION     0.017    0.198     0  06:00       0.375        3.41       4.940
  F10                  JUNCTION     0.017    0.185     0  00:27       0.375        3.13       4.037
  G00                  JUNCTION     0.017    0.041     0  06:00       0.375       0.832      11.749
  G01                  JUNCTION     0.017    0.070     0  00:41       0.375        1.27      10.948
  G02                  JUNCTION     0.017    0.098     0  00:39       0.375        1.68       8.641
  G03                  JUNCTION     0.017    0.122     0  00:36       0.375        2.12       7.155
  G04                  JUNCTION     0.017    0.148     0  06:00       0.375        2.61       6.014
  G05                  JUNCTION     0.017    0.189     0  06:00       0.375        3.17       5.078
  G06                  JUNCTION     0.017    0.231     0  06:00       0.375        3.77       4.330
  G07                  JUNCTION     0.017    0.264     0  06:00       0.375        4.31       3.820
  G08                  JUNCTION     0.017    0.281     0  06:00       0.375        4.62       3.597
  G09                  JUNCTION     0.017    0.272     0  06:00       0.375        4.53       3.701
  G10                  JUNCTION     0.017    0.237     0  06:00       0.375        4.08       3.097
  H00                  JUNCTION     0.017    0.040     0  00:46       0.375       0.811      13.147
  H01                  JUNCTION     0.017    0.070     0  00:38       0.375        1.26      11.894
  H02                  JUNCTION     0.017    0.099     0  00:36       0.375        1.69       9.152
  H03                  JUNCTION     0.017    0.125     0  00:34       0.375        2.16       7.363
  H04                  JUNCTION     0.017    0.156     0  06:00       0.375        2.73       5.957
  H05                  JUNCTION     0.017    0.207     0  06:00       0.375        3.44       4.768
  H06                  JUNCTION     0.017    0.264     0  06:00       0.375        4.31       3.820
  H07                  JUNCTION     0.017    0.324     0  06:00       0.375        5.26       3.144
  H08                  JUNCTION     0.017    0.373     0  06:00       0.375        6.05       2.745
  H09                  JUNCTION     0.017    0.385     0  06:00       0.375        6.27       2.668
  H10                  JUNCTION     0.017    0.337     0  06:00       0.375         5.6       2.250
  I00                  JUNCTION     0.017    0.040     0  00:40       0.375       0.755      15.338
  I01                  JUNCTION     0.017    0.070     0  00:35       0.375        1.21      13.283
  I02                  JUNCTION     0.017    0.099     0  00:33       0.375        1.64       9.930
  I03                  JUNCTION     0.017    0.125     0  00:32       0.375        2.12       7.782
  I04                  JUNCTION     0.017    0.155     0  06:00       0.375        2.73       6.098
  I05                  JUNCTION     0.017    0.211     0  06:00       0.375        3.53       4.706
  I06                  JUNCTION     0.017    0.281     0  06:00       0.375        4.62       3.597
  I07                  JUNCTION     0.017    0.373     0  06:00       0.375        6.05       2.745
  I08                  JUNCTION     0.017    0.479     0  06:00       0.375        7.72       2.154
  I09                  JUNCTION     0.017    0.558     0  06:00       0.375        8.99       1.858
  I10                  JUNCTION     0.017    0.526     0  06:00       0.375        8.53       1.473
  J00                  JUNCTION     0.017    0.038     0  00:35       0.375       0.666      18.966
  J01                  JUNCTION     0.017    0.068     0  00:33       0.375        1.12      15.241
  J02                  JUNCTION     0.017    0.098     0  00:31       0.375        1.56      10.926
  J03                  JUNCTION     0.017    0.128     0  00:30       0.375        2.04       8.331
  J04                  JUNCTION     0.017    0.153     0  00:29       0.375        2.62       6.441
  J05                  JUNCTION     0.017    0.198     0  06:00       0.375        3.41       4.940
  J06                  JUNCTION     0.017    0.272     0  06:00       0.375        4.53       3.701
  J07                  JUNCTION     0.017    0.385     0  06:00       0.375        6.27       2.668
  J08                  JUNCTION     0.017    0.558     0  06:00       0.375        8.99       1.858
  J09                  JUNCTION     0.017    0.790     0  06:00       0.375        12.7       1.317
  J10                  JUNCTION     0.017    0.938     0  06:00       0.375          15       0.834
  K00                  JUNCTION     0.017    0.032     0  00:31       0.375       0.537      15.965
  K01                  JUNCTION     0.017    0.065     0  00:30       0.375        1.02      12.771
  K02                  JUNCTION     0.017    0.099     0  00:29       0.375        1.46       8.738
  K03                  JUNCTION     0.017    0.132     0  00:29       0.375        1.93       6.579
  K04                  JUNCTION     0.017    0.162     0  00:28       0.375        2.46       5.146
  K05                  JUNCTION     0.017    0.185     0  00:27       0.375        3.13       4.037
  K06                  JUNCTION     0.017    0.237     0  06:00       0.375        4.08       3.097
  K07                  JUNCTION     0.017    0.337     0  06:00       0.375         5.6       2.250
  K08                  JUNCTION     0.017    0.526     0  06:00       0.375        8.53       1.473
  K09                  JUNCTION     0.017    0.938     0  06:00       0.375          15       0.834
  K10                  JUNCTION     0.017    1.892     0  06:00       0.375        30.2       0.420
  Outfall              OUTFALL      0.000    1.892     0  06:00           0        30.1       0.000
  
  
  **********************
  Node Surcharge Summary
  **********************
  
  Surcharging occurs when water rises above the top of the highest conduit.
  ---------------------------------------------------------------------
                                               Max. Height   Min. Depth
                                   Hours       Above Crown    Below Rim
  Node                 Type      Surcharged         Meters       Meters
  ---------------------------------------------------------------------
  D10                  JUNCTION        0.66          0.045        8.955
  E09                  JUNCTION        0.65          0.044        8.956
  E10                  JUNCTION        1.33          0.094        8.906
  F08                  JUNCTION        0.63          0.043        8.957
  F09                  JUNCTION        1.31          0.093        8.907
  F10                  JUNCTION        1.96          0.143        8.857
  G07                  JUNCTION        0.62          0.042        8.958
  G08                  JUNCTION        1.29          0.091        8.909
  G09                  JUNCTION        1.94          0.140        8.860
  G10                  JUNCTION        2.51          0.190        8.810
  H06                  JUNCTION        0.62          0.042        8.958
  H07                  JUNCTION        1.27          0.090        8.910
  H08                  JUNCTION        1.91          0.137        8.863
  H09                  JUNCTION        2.47          0.185        8.815
  H10                  JUNCTION        2.97          0.234        8.766
  I05                  JUNCTION        0.63          0.043        8.957
  I06                  JUNCTION        1.29          0.091        8.909
  I07                  JUNCTION        1.91          0.137        8.863
  I08                  JUNCTION        2.45          0.182        8.818
  I09                  JUNCTION        2.92          0.226        8.774
  I10                  JUNCTION        3.36          0.273        8.727
  J04                  JUNCTION        0.65          0.044        8.956
  J05                  JUNCTION        1.31          0.093        8.907
  J06                  JUNCTION        1.94          0.140        8.860
  J07                  JUNCTION        2.47          0.185        8.815
  J08                  JUNCTION        2.92          0.226        8.774
  J09                  JUNCTION        3.30          0.262        8.738
  J10                  JUNCTION        3.66          0.296        8.704
  K03                  JUNCTION        0.66          0.045        8.955
  K04                  JUNCTION        1.33          0.094        8.906
  K05                  JUNCTION        1.96          0.143        8.857
  K06                  JUNCTION        2.51          0.190        8.810
  K07                  JUNCTION        2.97          0.234        8.766
  K08                  JUNCTION        3.36          0.273        8.727
  K09                  JUNCTION        3.66          0.296        8.704
  K10                  JUNCTION        3.67          0.261        8.739
  
  
  *********************
  Node Flooding Summary
  *********************
  
  No nodes were flooded.
  
  
  ***********************
  Outfall Loading Summary
  ***********************
  
  -----------------------------------------------------------
                         Flow       Avg       Max       Total
                         Freq      Flow      Flow      Volume
  Outfall Node           Pcnt       CMS       CMS    10^6 ltr
  -----------------------------------------------------------
  Outfall               99.91     1.394     1.892      30.077
  -----------------------------------------------------------
  System                99.91     1.394     1.892      30.077
  
  
  ********************
  Link Flow Summary
  ********************
  
  -----------------------------------------------------------------------------
                                 Maximum  Time of Max   Maximum    Max/    Max/
                                  |Flow|   Occurrence   |Veloc|    Full    Full
  Link                 Type          CMS  days hr:min     m/sec    Flow   Depth
  -----------------------------------------------------------------------------
  121                  CONDUIT     0.009     0  01:02      0.29    0.01    0.42
  122                  CONDUIT     0.014     0  06:00      0.33    0.02    0.47
  123                  CONDUIT     0.019     0  06:00      0.35    0.03    0.52
  124                  CONDUIT     0.022     0  06:00      0.37    0.03    0.57
  125                  CONDUIT     0.024     0  06:00      0.38    0.03    0.62
  126                  CONDUIT     0.024     0  06:00      0.39    0.03    0.67
  127                  CONDUIT     0.022     0  00:46      0.39    0.03    0.72
  128                  CONDUIT     0.022     0  00:40      0.38    0.03    0.77
  129                  CONDUIT     0.021     0  00:35      0.35    0.03    0.82
  130                  CONDUIT     0.014     0  00:31      0.24    0.02    0.87
  131                  CONDUIT     0.013     0  00:30      0.31    0.02    0.47
  132                  CONDUIT     0.021     0  00:56      0.37    0.03    0.52
  133                  CONDUIT     0.027     0  01:06      0.41    0.04    0.57
  134                  CONDUIT     0.031     0  01:02      0.43    0.04    0.62
  135                  CONDUIT     0.034     0  00:54      0.45    0.05    0.67
  136                  CONDUIT     0.036     0  00:48      0.46    0.05    0.72
  137                  CONDUIT     0.037     0  00:42      0.46    0.05    0.77
  138                  CONDUIT     0.037     0  00:36      0.44    0.05    0.82
  139                  CONDUIT     0.032     0  00:32      0.38    0.05    0.87
  140                  CONDUIT     0.020     0  00:30      0.22    0.03    0.92
  141                  CONDUIT     0.014     0  00:49      0.31    0.02    0.52
  142                  CONDUIT     0.026     0  00:51      0.38    0.04    0.57
  143                  CONDUIT     0.035     0  00:49      0.43    0.05    0.62
  144                  CONDUIT     0.041     0  00:47      0.46    0.06    0.67
  145                  CONDUIT     0.046     0  00:45      0.48    0.07    0.72
  146                  CONDUIT     0.049     0  00:41      0.50    0.07    0.77
  147                  CONDUIT     0.051     0  00:37      0.50    0.07    0.82
  148                  CONDUIT     0.049     0  00:33      0.47    0.07    0.87
  149                  CONDUIT     0.040     0  00:31      0.37    0.06    0.92
  150                  CONDUIT     0.023     0  00:29      0.22    0.03    0.97
  151                  CONDUIT     0.015     0  00:48      0.31    0.02    0.57
  152                  CONDUIT     0.029     0  00:47      0.39    0.04    0.62
  153                  CONDUIT     0.040     0  00:45      0.44    0.06    0.67
  154                  CONDUIT     0.048     0  00:43      0.48    0.07    0.72
  155                  CONDUIT     0.055     0  00:40      0.50    0.08    0.77
  156                  CONDUIT     0.059     0  00:37      0.52    0.08    0.82
  157                  CONDUIT     0.061     0  00:34      0.52    0.09    0.87
  158                  CONDUIT     0.057     0  00:31      0.47    0.08    0.92
  159                  CONDUIT     0.045     0  00:30      0.37    0.06    0.97
  160                  CONDUIT     0.024     0  00:28      0.23    0.04    1.00
  161                  CONDUIT     0.016     0  00:45      0.31    0.02    0.62
  162                  CONDUIT     0.030     0  00:44      0.39    0.04    0.67
  163                  CONDUIT     0.043     0  00:42      0.44    0.06    0.72
  164                  CONDUIT     0.053     0  00:40      0.48    0.08    0.77
  165                  CONDUIT     0.061     0  00:37      0.52    0.09    0.82
  166                  CONDUIT     0.067     0  00:35      0.54    0.10    0.87
  167                  CONDUIT     0.068     0  00:31      0.53    0.10    0.92
  168                  CONDUIT     0.062     0  00:29      0.46    0.09    0.97
  169                  CONDUIT     0.046     0  00:26      0.37    0.07    1.00
  170                  CONDUIT     0.024     0  00:28      0.23    0.03    1.00
  171                  CONDUIT     0.016     0  00:42      0.31    0.02    0.67
  172                  CONDUIT     0.031     0  00:41      0.39    0.04    0.72
  173                  CONDUIT     0.046     0  06:00      0.44    0.07    0.77
  174                  CONDUIT     0.060     0  06:00      0.49    0.09    0.82
  175                  CONDUIT     0.072     0  06:00      0.52    0.10    0.87
  176                  CONDUIT     0.080     0  06:00      0.54    0.11    0.92
  177                  CONDUIT     0.081     0  06:00      0.53    0.12    0.97
  178                  CONDUIT     0.075     0  06:00      0.46    0.11    1.00
  179                  CONDUIT     0.056     0  06:00      0.37    0.08    1.00
  180                  CONDUIT     0.029     0  06:00      0.23    0.04    1.00
  181                  CONDUIT     0.018     0  05:59      0.31    0.03    0.72
  182                  CONDUIT     0.035     0  05:59      0.39    0.05    0.77
  183                  CONDUIT     0.054     0  06:00      0.44    0.08    0.82
  184                  CONDUIT     0.073     0  06:00      0.49    0.11    0.87
  185                  CONDUIT     0.092     0  06:00      0.52    0.13    0.92
  186                  CONDUIT     0.107     0  06:00      0.54    0.15    0.97
  187                  CONDUIT     0.115     0  06:00      0.53    0.16    1.00
  188                  CONDUIT     0.110     0  06:00      0.46    0.16    1.00
  189                  CONDUIT     0.086     0  06:00      0.37    0.12    1.00
  190                  CONDUIT     0.047     0  04:41      0.23    0.07    1.00
  191                  CONDUIT     0.019     0  05:59      0.31    0.03    0.77
  192                  CONDUIT     0.039     0  06:00      0.39    0.06    0.82
  193                  CONDUIT     0.061     0  06:00      0.44    0.09    0.87
  194                  CONDUIT     0.085     0  06:00      0.49    0.12    0.92
  195                  CONDUIT     0.109     0  06:00      0.52    0.16    0.97
  196                  CONDUIT     0.132     0  06:00      0.54    0.19    1.00
  197                  CONDUIT     0.153     0  06:00      0.52    0.22    1.00
  198                  CONDUIT     0.162     0  06:00      0.46    0.23    1.00
  199                  CONDUIT     0.142     0  06:00      0.37    0.20    1.00
  200                  CONDUIT     0.083     0  06:00      0.23    0.12    1.00
  201                  CONDUIT     0.021     0  06:00      0.31    0.03    0.82
  202                  CONDUIT     0.042     0  06:00      0.39    0.06    0.87
  203                  CONDUIT     0.065     0  06:00      0.44    0.09    0.92
  204                  CONDUIT     0.091     0  06:00      0.48    0.13    0.97
  205                  CONDUIT     0.118     0  06:00      0.53    0.17    1.00
  206                  CONDUIT     0.154     0  06:00      0.56    0.22    1.00
  207                  CONDUIT     0.194     0  06:00      0.54    0.28    1.00
  208                  CONDUIT     0.231     0  06:00      0.46    0.33    1.00
  209                  CONDUIT     0.239     0  06:00      0.37    0.34    1.00
  210                  CONDUIT     0.171     0  06:00      0.23    0.25    1.00
  211                  CONDUIT     0.021     0  05:57      0.31    0.03    0.87
  212                  CONDUIT     0.043     0  05:59      0.39    0.06    0.92
  213                  CONDUIT     0.067     0  06:00      0.45    0.10    0.97
  214                  CONDUIT     0.091     0  06:00      0.52    0.13    1.00
  215                  CONDUIT     0.125     0  06:00      0.57    0.18    1.00
  216                  CONDUIT     0.168     0  06:00      0.60    0.24    1.00
  217                  CONDUIT     0.225     0  06:00      0.59    0.32    1.00
  218                  CONDUIT     0.301     0  06:00      0.51    0.43    1.00
  219                  CONDUIT     0.386     0  06:00      0.49    0.55    1.00
  220                  CONDUIT     0.395     0  06:00      0.50    0.57    1.00
  221                  CONDUIT     0.028     0  00:32      0.37    0.04    0.92
  222                  CONDUIT     0.058     0  00:30      0.44    0.08    0.97
  223                  CONDUIT     0.090     0  00:29      0.52    0.13    1.00
  224                  CONDUIT     0.121     0  00:28      0.57    0.17    1.00
  225                  CONDUIT     0.146     0  00:27      0.62    0.21    1.00
  226                  CONDUIT     0.173     0  06:00      0.66    0.25    1.00
  227                  CONDUIT     0.237     0  06:00      0.64    0.34    1.00
  228                  CONDUIT     0.337     0  06:00      0.57    0.48    1.00
  229                  CONDUIT     0.525     0  06:00      0.67    0.75    1.00
  230                  CONDUIT     0.937     0  06:00      1.19    1.34    1.00
  231                  CONDUIT     0.028     0  00:32      0.37    0.04    0.92
  232                  CONDUIT     0.058     0  00:30      0.44    0.08    0.97
  233                  CONDUIT     0.090     0  00:29      0.52    0.13    1.00
  234                  CONDUIT     0.121     0  00:28      0.57    0.17    1.00
  235                  CONDUIT     0.146     0  00:27      0.62    0.21    1.00
  236                  CONDUIT     0.173     0  06:00      0.66    0.25    1.00
  237                  CONDUIT     0.237     0  06:00      0.64    0.34    1.00
  238                  CONDUIT     0.337     0  06:00      0.57    0.48    1.00
  239                  CONDUIT     0.525     0  06:00      0.67    0.75    1.00
  240                  CONDUIT     0.937     0  06:00      1.19    1.34    1.00
  241                  CONDUIT     1.892     0  06:00      2.41   34.76    1.00
  242                  CONDUIT     0.009     0  01:02      0.29    0.01    0.42
  243                  CONDUIT     0.014     0  06:00      0.33    0.02    0.47
  244                  CONDUIT     0.019     0  06:00      0.35    0.03    0.52
  245                  CONDUIT     0.022     0  06:00      0.37    0.03    0.57
  246                  CONDUIT     0.024     0  06:00      0.38    0.03    0.62
  247                  CONDUIT     0.024     0  06:00      0.39    0.03    0.67
  248                  CONDUIT     0.022     0  00:46      0.39    0.03    0.72
  249                  CONDUIT     0.022     0  00:40      0.38    0.03    0.77
  250                  CONDUIT     0.021     0  00:35      0.35    0.03    0.82
  251                  CONDUIT     0.014     0  00:31      0.24    0.02    0.87
  252                  CONDUIT     0.013     0  00:30      0.31    0.02    0.47
  253                  CONDUIT     0.021     0  00:56      0.37    0.03    0.52
  254                  CONDUIT     0.027     0  01:06      0.41    0.04    0.57
  255                  CONDUIT     0.031     0  01:02      0.43    0.04    0.62
  256                  CONDUIT     0.034     0  00:54      0.45    0.05    0.67
  257                  CONDUIT     0.036     0  00:48      0.46    0.05    0.72
  258                  CONDUIT     0.037     0  00:42      0.46    0.05    0.77
  259                  CONDUIT     0.037     0  00:36      0.44    0.05    0.82
  260                  CONDUIT     0.032     0  00:32      0.38    0.05    0.87
  261                  CONDUIT     0.020     0  00:30      0.22    0.03    0.92
  262                  CONDUIT     0.014     0  00:49      0.31    0.02    0.52
  263                  CONDUIT     0.026     0  00:51      0.38    0.04    0.57
  264                  CONDUIT     0.035     0  00:49      0.43    0.05    0.62
  265                  CONDUIT     0.041     0  00:47      0.46    0.06    0.67
  266                  CONDUIT     0.046     0  00:45      0.48    0.07    0.72
  267                  CONDUIT     0.049     0  00:41      0.50    0.07    0.77
  268                  CONDUIT     0.051     0  00:37      0.50    0.07    0.82
  269                  CONDUIT     0.049     0  00:33      0.47    0.07    0.87
  270                  CONDUIT     0.040     0  00:31      0.37    0.06    0.92
  271                  CONDUIT     0.023     0  00:29      0.22    0.03    0.97
  272                  CONDUIT     0.015     0  00:48      0.31    0.02    0.57
  273                  CONDUIT     0.029     0  00:47      0.39    0.04    0.62
  274                  CONDUIT     0.040     0  00:45      0.44    0.06    0.67
  275                  CONDUIT     0.048     0  00:43      0.48    0.07    0.72
  276                  CONDUIT     0.055     0  00:40      0.50    0.08    0.77
  277                  CONDUIT     0.059     0  00:37      0.52    0.08    0.82
  278                  CONDUIT     0.061     0  00:34      0.52    0.09    0.87
  279                  CONDUIT     0.057     0  00:31      0.47    0.08    0.92
  280                  CONDUIT     0.045     0  00:30      0.37    0.06    0.97
  281                  CONDUIT     0.024     0  00:28      0.23    0.04    1.00
  282                  CONDUIT     0.016     0  00:45      0.31    0.02    0.62
  283                  CONDUIT     0.030     0  00:44      0.39    0.04    0.67
  284                  CONDUIT     0.043     0  00:42      0.44    0.06    0.72
  285                  CONDUIT     0.053     0  00:40      0.48    0.08    0.77
  286                  CONDUIT     0.061     0  00:37      0.52    0.09    0.82
  287                  CONDUIT     0.067     0  00:35      0.54    0.10    0.87
  288                  CONDUIT     0.068     0  00:31      0.53    0.10    0.92
  289                  CONDUIT     0.062     0  00:29      0.46    0.09    0.97
  290                  CONDUIT     0.046     0  00:26      0.37    0.07    1.00
  291                  CONDUIT     0.024     0  00:28      0.23    0.03    1.00
  292                  CONDUIT     0.016     0  00:42      0.31    0.02    0.67
  293                  CONDUIT     0.031     0  00:41      0.39    0.04    0.72
  294                  CONDUIT     0.046     0  06:00      0.44    0.07    0.77
  295                  CONDUIT     0.060     0  06:00      0.49    0.09    0.82
  296                  CONDUIT     0.072     0  06:00      0.52    0.10    0.87
  297                  CONDUIT     0.080     0  06:00      0.54    0.11    0.92
  298                  CONDUIT     0.081     0  06:00      0.53    0.12    0.97
  299                  CONDUIT     0.075     0  06:00      0.46    0.11    1.00
  300                  CONDUIT     0.056     0  06:00      0.37    0.08    1.00
  301                  CONDUIT     0.029     0  06:00      0.23    0.04    1.00
  302                  CONDUIT     0.018     0  05:59      0.31    0.03    0.72
  303                  CONDUIT     0.035     0  05:59      0.39    0.05    0.77
  304                  CONDUIT     0.054     0  06:00      0.44    0.08    0.82
  305                  CONDUIT     0.073     0  06:00      0.49    0.11    0.87
  306                  CONDUIT     0.092     0  06:00      0.52    0.13    0.92
  307                  CONDUIT     0.107     0  06:00      0.54    0.15    0.97
  308                  CONDUIT     0.115     0  06:00      0.53    0.16    1.00
  309                  CONDUIT     0.110     0  06:00      0.46    0.16    1.00
  310                  CONDUIT     0.086     0  06:00      0.37    0.12    1.00
  311                  CONDUIT     0.047     0  04:41      0.23    0.07    1.00
  312                  CONDUIT     0.019     0  05:59      0.31    0.03    0.77
  313                  CONDUIT     0.039     0  06:00      0.39    0.06    0.82
  314                  CONDUIT     0.061     0  06:00      0.44    0.09    0.87
  315                  CONDUIT     0.085     0  06:00      0.49    0.12    0.92
  316                  CONDUIT     0.109     0  06:00      0.52    0.16    0.97
  317                  CONDUIT     0.132     0  06:00      0.54    0.19    1.00
  318                  CONDUIT     0.153     0  06:00      0.52    0.22    1.00
  319                  CONDUIT     0.162     0  06:00      0.46    0.23    1.00
  320                  CONDUIT     0.142     0  06:00      0.37    0.20    1.00
  321                  CONDUIT     0.083     0  06:00      0.23    0.12    1.00
  322                  CONDUIT     0.021     0  06:00      0.31    0.03    0.82
  323                  CONDUIT     0.042     0  06:00      0.39    0.06    0.87
  324                  CONDUIT     0.065     0  06:00      0.44    0.09    0.92
  325                  CONDUIT     0.091     0  06:00      0.48    0.13    0.97
  326                  CONDUIT     0.118     0  06:00      0.53    0.17    1.00
  327                  CONDUIT     0.154     0  06:00      0.56    0.22    1.00
  328                  CONDUIT     0.194     0  06:00      0.54    0.28    1.00
  329                  CONDUIT     0.231     0  06:00      0.46    0.33    1.00
  330                  CONDUIT     0.239     0  06:00      0.37    0.34    1.00
  331                  CONDUIT     0.171     0  06:00      0.23    0.25    1.00
  332                  CONDUIT     0.021     0  05:57      0.31    0.03    0.87
  333                  CONDUIT     0.043     0  05:59      0.39    0.06    0.92
  334                  CONDUIT     0.067     0  06:00      0.45    0.10    0.97
  335                  CONDUIT     0.091     0  06:00      0.52    0.13    1.00
  336                  CONDUIT     0.125     0  06:00      0.57    0.18    1.00
  337                  CONDUIT     0.168     0  06:00      0.60    0.24    1.00
  338                  CONDUIT     0.225     0  06:00      0.59    0.32    1.00
  339                  CONDUIT     0.301     0  06:00      0.51    0.43    1.00
  340                  CONDUIT     0.386     0  06:00      0.49    0.55    1.00
  341                  CONDUIT     0.395     0  06:00      0.50    0.57    1.00
  
  
  ***************************
  Flow Classification Summary
  ***************************
  
  -------------------------------------------------------------------------------------
                      Adjusted    ---------- Fraction of Time in Flow Class ---------- 
                       /Actual         Up    Down  Sub   Sup   Up    Down  Norm  Inlet 
  Conduit               Length    Dry  Dry   Dry   Crit  Crit  Crit  Crit  Ltd   Ctrl  
  -------------------------------------------------------------------------------------
  121                     1.00   0.00  0.00  0.00  1.00  0.00  0.00  0.00  0.33  0.00
  122                     1.00   0.00  0.00  0.00  1.00  0.00  0.00  0.00  0.27  0.00
  123                     1.00   0.00  0.00  0.00  1.00  0.00  0.00  0.00  0.21  0.00
  124                     1.00   0.00  0.00  0.00  1.00  0.00  0.00  0.00  0.16  0.00
  125                     1.00   0.00  0.00  0.00  1.00  0.00  0.00  0.00  0.11  0.00
  126                     1.00   0.00  0.00  0.00  1.00  0.00  0.00  0.00  0.07  0.00
  127                     1.00   0.00  0.00  0.00  1.00  0.00  0.00  0.00  0.04  0.00
  128                     1.00   0.00  0.00  0.00  1.00  0.00  0.00  0.00  0.02  0.00
  129                     1.00   0.00  0.00  0.00  1.00  0.00  0.00  0.00  0.02  0.00
  130                     1.00   0.00  0.00  0.00  1.00  0.00  0.00  0.00  0.01  0.00
  131                     1.00   0.00  0.00  0.00  1.00  0.00  0.00  0.00  0.02  0.00
  132                     1.00   0.00  0.00  0.00  1.00  0.00  0.00  0.00  0.00  0.00
  133                     1.00   0.00  0.00  0.00  1.00  0.00  0.00  0.00  0.00  0.00
  134                     1.00   0.00  0.00  0.00  1.00  0.00  0.00  0.00  0.00  0.00
  135                     1.00   0.00  0.00  0.00  1.00  0.00  0.00  0.00  0.00  0.00
  136                     1.00   0.00  0.00  0.00  1.00  0.00  0.00  0.00  0.00  0.00
  137                     1.00   0.00  0.00  0.00  1.00  0.00  0.00  0.00  0.00  0.00
  138                     1.00   0.00  0.00  0.00  1.00  0.00  0.00  0.00  0.00  0.00
  139                     1.00   0.00  0.00  0.00  1.00  0.00  0.00  0.00  0.00  0.00
  140                     1.00   0.00  0.00  0.00  1.00  0.00  0.00  0.00  0.01  0.00
  141                     1.00   0.00  0.00  0.00  1.00  0.00  0.00  0.00  0.01  0.00
  142                     1.00   0.00  0.00  0.00  1.00  0.00  0.00  0.00  0.00  0.00
  143                     1.00   0.00  0.00  0.00  1.00  0.00  0.00  0.00  0.00  0.00
  144                     1.00   0.00  0.00  0.00  1.00  0.00  0.00  0.00  0.00  0.00
  145                     1.00   0.00  0.00  0.00  1.00  0.00  0.00  0.00  0.00  0.00
  146                     1.00   0.00  0.00  0.00  1.00  0.00  0.00  0.00  0.00  0.00
  147                     1.00   0.00  0.00  0.00  1.00  0.00  0.00  0.00  0.00  0.00
  148                     1.00   0.00  0.00  0.00  1.00  0.00  0.00  0.00  0.00  0.00
  149                     1.00   0.00  0.00  0.00  1.00  0.00  0.00  0.00  0.00  0.00
  150                     1.00   0.00  0.00  0.00  1.00  0.00  0.00  0.00  0.01  0.00
  151                     1.00   0.00  0.00  0.00  1.00  0.00  0.00  0.00  0.01  0.00
  152                     1.00   0.00  0.00  0.00  1.00  0.00  0.00  0.00  0.00  0.00
  153                     1.00   0.00  0.00  0.00  1.00  0.00  0.00  0.00  0.00  0.00
  154                     1.00   0.00  0.00  0.00  1.00  0.00  0.00  0.00  0.00  0.00
  155                     1.00   0.00  0.00  0.00  1.00  0.00  0.00  0.00  0.00  0.00
  156                     1.00   0.00  0.00  0.00  1.00  0.00  0.00  0.00  0.00  0.00
  157                     1.00   0.00  0.00  0.00  1.00  0.00  0.00  0.00  0.00  0.00
  158                     1.00   0.00  0.00  0.00  1.00  0.00  0.00  0.00  0.00  0.00
  159                     1.00   0.00  0.00  0.00  1.00  0.00  0.00  0.00  0.00  0.00
  160                     1.00   0.00  0.00  0.00  1.00  0.00  0.00  0.00  0.01  0.00
  161                     1.00   0.00  0.00  0.00  1.00  0.00  0.00  0.00  0.01  0.00
  162                     1.00   0.00  0.00  0.00  1.00  0.00  0.00  0.00  0.00  0.00
  163                     1.00   0.00  0.00  0.00  1.00  0.00  0.00  0.00  0.00  0.00
  164                     1.00   0.00  0.00  0.00  1.00  0.00  0.00  0.00  0.00  0.00
  165                     1.00   0.00  0.00  0.00  1.00  0.00  0.00  0.00  0.00  0.00
  166                     1.00   0.00  0.00  0.00  1.00  0.00  0.00  0.00  0.00  0.00
  167                     1.00   0.00  0.00  0.00  1.00  0.00  0.00  0.00  0.00  0.00
  168                     1.00   0.00  0.00  0.00  1.00  0.00  0.00  0.00  0.00  0.00
  169                     1.00   0.00  0.00  0.00  1.00  0.00  0.00  0.00  0.00  0.00
  170                     1.00   0.00  0.00  0.00  1.00  0.00  0.00  0.00  0.01  0.00
  171                     1.00   0.00  0.00  0.00  1.00  0.00  0.00  0.00  0.01  0.00
  172                     1.00   0.00  0.00  0.00  1.00  0.00  0.00  0.00  0.00  0.00
  173                     1.00   0.00  0.00  0.00  1.00  0.00  0.00  0.00  0.00  0.00
  174                     1.00   0.00  0.00  0.00  1.00  0.00  0.00  0.00  0.00  0.00
  175                     1.00   0.00  0.00  0.00  1.00  0.00  0.00  0.00  0.00  0.00
  176                     1.00   0.00  0.00  0.00  1.00  0.00  0.00  0.00  0.00  0.00
  177                     1.00   0.00  0.00  0.00  1.00  0.00  0.00  0.00  0.00  0.00
  178                     1.00   0.00  0.00  0.00  1.00  0.00  0.00  0.00  0.00  0.00
  179                     1.00   0.00  0.00  0.00  1.00  0.00  0.00  0.00  0.00  0.00
  180                     1.00   0.00  0.00  0.00  1.00  0.00  0.00  0.00  0.01  0.00
  181                     1.00   0.00  0.00  0.00  1.00  0.00  0.00  0.00  0.01  0.00
  182                     1.00   0.00  0.00  0.00  1.00  0.00  0.00  0.00  0.00  0.00
  183                     1.00   0.00  0.00  0.00  1.00  0.00  0.00  0.00  0.00  0.00
  184                     1.00   0.00  0.00  0.00  1.00  0.00  0.00  0.00  0.00  0.00
  185                     1.00   0.00  0.00  0.00  1.00  0.00  0.00  0.00  0.00  0.00
  186                     1.00   0.00  0.00  0.00  1.00  0.00  0.00  0.00  0.00  0.00
  187                     1.00   0.00  0.00  0.00  1.00  0.00  0.00  0.00  0.00  0.00
  188                     1.00   0.00  0.00  0.00  1.00  0.00  0.00  0.00  0.00  0.00
  189                     1.00   0.00  0.00  0.00  1.00  0.00  0.00  0.00  0.00  0.00
  190                     1.00   0.00  0.00  0.00  1.00  0.00  0.00  0.00  0.01  0.00
  191                     1.00   0.00  0.00  0.00  1.00  0.00  0.00  0.00  0.01  0.00
  192                     1.00   0.00  0.00  0.00  1.00  0.00  0.00  0.00  0.00  0.00
  193                     1.00   0.00  0.00  0.00  1.00  0.00  0.00  0.00  0.00  0.00
  194                     1.00   0.00  0.00  0.00  1.00  0.00  0.00  0.00  0.00  0.00
  195                     1.00   0.00  0.00  0.00  1.00  0.00  0.00  0.00  0.00  0.00
  196                     1.00   0.00  0.00  0.00  1.00  0.00  0.00  0.00  0.00  0.00
  197                     1.00   0.00  0.00  0.00  1.00  0.00  0.00  0.00  0.00  0.00
  198                     1.00   0.00  0.00  0.00  1.00  0.00  0.00  0.00  0.00  0.00
  199                     1.00   0.00  0.00  0.00  1.00  0.00  0.00  0.00  0.00  0.00
  200                     1.00   0.00  0.00  0.00  1.00  0.00  0.00  0.00  0.01  0.00
  201                     1.00   0.00  0.00  0.00  1.00  0.00  0.00  0.00  0.01  0.00
  202                     1.00   0.00  0.00  0.00  1.00  0.00  0.00  0.00  0.00  0.00
  203                     1.00   0.00  0.00  0.00  1.00  0.00  0.00  0.00  0.00  0.00
  204                     1.00   0.00  0.00  0.00  1.00  0.00  0.00  0.00  0.00  0.00
  205                     1.00   0.00  0.00  0.00  1.00  0.00  0.00  0.00  0.00  0.00
  206                     1.00   0.00  0.00  0.00  1.00  0.00  0.00  0.00  0.00  0.00
  207                     1.00   0.00  0.00  0.00  1.00  0.00  0.00  0.00  0.00  0.00
  208                     1.00   0.00  0.00  0.00  1.00  0.00  0.00  0.00  0.00  0.00
  209                     1.00   0.00  0.00  0.00  1.00  0.00  0.00  0.00  0.00  0.00
  210                     1.00   0.00  0.00  0.00  1.00  0.00  0.00  0.00  0.01  0.00
  211                     1.00   0.00  0.00  0.00  1.00  0.00  0.00  0.00  0.01  0.00
  212                     1.00   0.00  0.00  0.00  1.00  0.00  0.00  0.00  0.00  0.00
  213                     1.00   0.00  0.00  0.00  1.00  0.00  0.00  0.00  0.00  0.00
  214                     1.00   0.00  0.00  0.00  1.00  0.00  0.00  0.00  0.00  0.00
  215                     1.00   0.00  0.00  0.00  1.00  0.00  0.00  0.00  0.00  0.00
  216                     1.00   0.00  0.00  0.00  1.00  0.00  0.00  0.00  0.00  0.00
  217                     1.00   0.00  0.00  0.00  1.00  0.00  0.00  0.00  0.00  0.00
  218                     1.00   0.00  0.00  0.00  1.00  0.00  0.00  0.00  0.00  0.00
  219                     1.00   0.00  0.00  0.00  1.00  0.00  0.00  0.00  0.00  0.00
  220                     1.00   0.00  0.00  0.00  1.00  0.00  0.00  0.00  0.01  0.00
  221                     1.00   0.00  0.00  0.00  1.00  0.00  0.00  0.00  0.00  0.00
  222                     1.00   0.00  0.00  0.00  1.00  0.00  0.00  0.00  0.00  0.00
  223                     1.00   0.00  0.00  0.00  1.00  0.00  0.00  0.00  0.00  0.00
  224                     1.00   0.00  0.00  0.00  1.00  0.00  0.00  0.00  0.00  0.00
  225                     1.00   0.00  0.00  0.00  1.00  0.00  0.00  0.00  0.00  0.00
  226                     1.00   0.00  0.00  0.00  1.00  0.00  0.00  0.00  0.00  0.00
  227                     1.00   0.00  0.00  0.00  1.00  0.00  0.00  0.00  0.00  0.00
  228                     1.00   0.00  0.00  0.00  1.00  0.00  0.00  0.00  0.00  0.00
  229                     1.00   0.00  0.00  0.00  1.00  0.00  0.00  0.00  0.00  0.00
  230                     1.00   0.00  0.00  0.00  1.00  0.00  0.00  0.00  0.00  0.00
  231                     1.00   0.00  0.00  0.00  1.00  0.00  0.00  0.00  0.00  0.00
  232                     1.00   0.00  0.00  0.00  1.00  0.00  0.00  0.00  0.00  0.00
  233                     1.00   0.00  0.00  0.00  1.00  0.00  0.00  0.00  0.00  0.00
  234                     1.00   0.00  0.00  0.00  1.00  0.00  0.00  0.00  0.00  0.00
  235                     1.00   0.00  0.00  0.00  1.00  0.00  0.00  0.00  0.00  0.00
  236                     1.00   0.00  0.00  0.00  1.00  0.00  0.00  0.00  0.00  0.00
  237                     1.00   0.00  0.00  0.00  1.00  0.00  0.00  0.00  0.00  0.00
  238                     1.00   0.00  0.00  0.00  1.00  0.00  0.00  0.00  0.00  0.00
  239                     1.00   0.00  0.00  0.00  1.00  0.00  0.00  0.00  0.00  0.00
  240                     1.00   0.00  0.00  0.00  1.00  0.00  0.00  0.00  0.00  0.00
  241                     1.00   0.00  0.00  0.00  1.00  0.00  0.00  0.00  0.00  0.00
  242                     1.00   0.00  0.00  0.00  1.00  0.00  0.00  0.00  0.33  0.00
  243                     1.00   0.00  0.00  0.00  1.00  0.00  0.00  0.00  0.27  0.00
  244                     1.00   0.00  0.00  0.00  1.00  0.00  0.00  0.00  0.21  0.00
  245                     1.00   0.00  0.00  0.00  1.00  0.00  0.00  0.00  0.16  0.00
  246                     1.00   0.00  0.00  0.00  1.00  0.00  0.00  0.00  0.11  0.00
  247                     1.00   0.00  0.00  0.00  1.00  0.00  0.00  0.00  0.07  0.00
  248                     1.00   0.00  0.00  0.00  1.00  0.00  0.00  0.00  0.04  0.00
  249                     1.00   0.00  0.00  0.00  1.00  0.00  0.00  0.00  0.02  0.00
  250                     1.00   0.00  0.00  0.00  1.00  0.00  0.00  0.00  0.02  0.00
  251                     1.00   0.00  0.00  0.00  1.00  0.00  0.00  0.00  0.01  0.00
  252                     1.00   0.00  0.00  0.00  1.00  0.00  0.00  0.00  0.02  0.00
  253                     1.00   0.00  0.00  0.00  1.00  0.00  0.00  0.00  0.00  0.00
  254                     1.00   0.00  0.00  0.00  1.00  0.00  0.00  0.00  0.00  0.00
  255                     1.00   0.00  0.00  0.00  1.00  0.00  0.00  0.00  0.00  0.00
  256                     1.00   0.00  0.00  0.00  1.00  0.00  0.00  0.00  0.00  0.00
  257                     1.00   0.00  0.00  0.00  1.00  0.00  0.00  0.00  0.00  0.00
  258                     1.00   0.00  0.00  0.00  1.00  0.00  0.00  0.00  0.00  0.00
  259                     1.00   0.00  0.00  0.00  1.00  0.00  0.00  0.00  0.00  0.00
  260                     1.00   0.00  0.00  0.00  1.00  0.00  0.00  0.00  0.00  0.00
  261                     1.00   0.00  0.00  0.00  1.00  0.00  0.00  0.00  0.01  0.00
  262                     1.00   0.00  0.00  0.00  1.00  0.00  0.00  0.00  0.01  0.00
  263                     1.00   0.00  0.00  0.00  1.00  0.00  0.00  0.00  0.00  0.00
  264                     1.00   0.00  0.00  0.00  1.00  0.00  0.00  0.00  0.00  0.00
  265                     1.00   0.00  0.00  0.00  1.00  0.00  0.00  0.00  0.00  0.00
  266                     1.00   0.00  0.00  0.00  1.00  0.00  0.00  0.00  0.00  0.00
  267                     1.00   0.00  0.00  0.00  1.00  0.00  0.00  0.00  0.00  0.00
  268                     1.00   0.00  0.00  0.00  1.00  0.00  0.00  0.00  0.00  0.00
  269                     1.00   0.00  0.00  0.00  1.00  0.00  0.00  0.00  0.00  0.00
  270                     1.00   0.00  0.00  0.00  1.00  0.00  0.00  0.00  0.00  0.00
  271                     1.00   0.00  0.00  0.00  1.00  0.00  0.00  0.00  0.01  0.00
  272                     1.00   0.00  0.00  0.00  1.00  0.00  0.00  0.00  0.01  0.00
  273                     1.00   0.00  0.00  0.00  1.00  0.00  0.00  0.00  0.00  0.00
  274                     1.00   0.00  0.00  0.00  1.00  0.00  0.00  0.00  0.00  0.00
  275                     1.00   0.00  0.00  0.00  1.00  0.00  0.00  0.00  0.00  0.00
  276                     1.00   0.00  0.00  0.00  1.00  0.00  0.00  0.00  0.00  0.00
  277                     1.00   0.00  0.00  0.00  1.00  0.00  0.00  0.00  0.00  0.00
  278                     1.00   0.00  0.00  0.00  1.00  0.00  0.00  0.00  0.00  0.00
  279                     1.00   0.00  0.00  0.00  1.00  0.00  0.00  0.00  0.00  0.00
  280                     1.00   0.00  0.00  0.00  1.00  0.00  0.00  0.00  0.00  0.00
  281                     1.00   0.00  0.00  0.00  1.00  0.00  0.00  0.00  0.01  0.00
  282                     1.00   0.00  0.00  0.00  1.00  0.00  0.00  0.00  0.01  0.00
  283                     1.00   0.00  0.00  0.00  1.00  0.00  0.00  0.00  0.00  0.00
  284                     1.00   0.00  0.00  0.00  1.00  0.00  0.00  0.00  0.00  0.00
  285                     1.00   0.00  0.00  0.00  1.00  0.00  0.00  0.00  0.00  0.00
  286                     1.00   0.00  0.00  0.00  1.00  0.00  0.00  0.00  0.00  0.00
  287                     1.00   0.00  0.00  0.00  1.00  0.00  0.00  0.00  0.00  0.00
  288                     1.00   0.00  0.00  0.00  1.00  0.00  0.00  0.00  0.00  0.00
  289                     1.00   0.00  0.00  0.00  1.00  0.00  0.00  0.00  0.00  0.00
  290                     1.00   0.00  0.00  0.00  1.00  0.00  0.00  0.00  0.00  0.00
  291                     1.00   0.00  0.00  0.00  1.00  0.00  0.00  0.00  0.01  0.00
  292                     1.00   0.00  0.00  0.00  1.00  0.00  0.00  0.00  0.01  0.00
  293                     1.00   0.00  0.00  0.00  1.00  0.00  0.00  0.00  0.00  0.00
  294                     1.00   0.00  0.00  0.00  1.00  0.00  0.00  0.00  0.00  0.00
  295                     1.00   0.00  0.00  0.00  1.00  0.00  0.00  0.00  0.00  0.00
  296                     1.00   0.00  0.00  0.00  1.00  0.00  0.00  0.00  0.00  0.00
  297                     1.00   0.00  0.00  0.00  1.00  0.00  0.00  0.00  0.00  0.00
  298                     1.00   0.00  0.00  0.00  1.00  0.00  0.00  0.00  0.00  0.00
  299                     1.00   0.00  0.00  0.00  1.00  0.00  0.00  0.00  0.00  0.00
  300                     1.00   0.00  0.00  0.00  1.00  0.00  0.00  0.00  0.00  0.00
  301                     1.00   0.00  0.00  0.00  1.00  0.00  0.00  0.00  0.01  0.00
  302                     1.00   0.00  0.00  0.00  1.00  0.00  0.00  0.00  0.01  0.00
  303                     1.00   0.00  0.00  0.00  1.00  0.00  0.00  0.00  0.00  0.00
  304                     1.00   0.00  0.00  0.00  1.00  0.00  0.00  0.00  0.00  0.00
  305                     1.00   0.00  0.00  0.00  1.00  0.00  0.00  0.00  0.00  0.00
  306                     1.00   0.00  0.00  0.00  1.00  0.00  0.00  0.00  0.00  0.00
  307                     1.00   0.00  0.00  0.00  1.00  0.00  0.00  0.00  0.00  0.00
  308                     1.00   0.00  0.00  0.00  1.00  0.00  0.00  0.00  0.00  0.00
  309                     1.00   0.00  0.00  0.00  1.00  0.00  0.00  0.00  0.00  0.00
  310                     1.00   0.00  0.00  0.00  1.00  0.00  0.00  0.00  0.00  0.00
  311                     1.00   0.00  0.00  0.00  1.00  0.00  0.00  0.00  0.01  0.00
  312                     1.00   0.00  0.00  0.00  1.00  0.00  0.00  0.00  0.01  0.00
  313                     1.00   0.00  0.00  0.00  1.00  0.00  0.00  0.00  0.00  0.00
  314                     1.00   0.00  0.00  0.00  1.00  0.00  0.00  0.00  0.00  0.00
  315                     1.00   0.00  0.00  0.00  1.00  0.00  0.00  0.00  0.00  0.00
  316                     1.00   0.00  0.00  0.00  1.00  0.00  0.00  0.00  0.00  0.00
  317                     1.00   0.00  0.00  0.00  1.00  0.00  0.00  0.00  0.00  0.00
  318                     1.00   0.00  0.00  0.00  1.00  0.00  0.00  0.00  0.00  0.00
  319                     1.00   0.00  0.00  0.00  1.00  0.00  0.00  0.00  0.00  0.00
  320                     1.00   0.00  0.00  0.00  1.00  0.00  0.00  0.00  0.00  0.00
  321                     1.00   0.00  0.00  0.00  1.00  0.00  0.00  0.00  0.01  0.00
  322                     1.00   0.00  0.00  0.00  1.00  0.00  0.00  0.00  0.01  0.00
  323                     1.00   0.00  0.00  0.00  1.00  0.00  0.00  0.00  0.00  0.00
  324                     1.00   0.00  0.00  0.00  1.00  0.00  0.00  0.00  0.00  0.00
  325                     1.00   0.00  0.00  0.00  1.00  0.00  0.00  0.00  0.00  0.00
  326                     1.00   0.00  0.00  0.00  1.00  0.00  0.00  0.00  0.00  0.00
  327                     1.00   0.00  0.00  0.00  1.00  0.00  0.00  0.00  0.00  0.00
  328                     1.00   0.00  0.00  0.00  1.00  0.00  0.00  0.00  0.00  0.00
  329                     1.00   0.00  0.00  0.00  1.00  0.00  0.00  0.00  0.00  0.00
  330                     1.00   0.00  0.00  0.00  1.00  0.00  0.00  0.00  0.00  0.00
  331                     1.00   0.00  0.00  0.00  1.00  0.00  0.00  0.00  0.01  0.00
  332                     1.00   0.00  0.00  0.00  1.00  0.00  0.00  0.00  0.01  0.00
  333                     1.00   0.00  0.00  0.00  1.00  0.00  0.00  0.00  0.00  0.00
  334                     1.00   0.00  0.00  0.00  1.00  0.00  0.00  0.00  0.00  0.00
  335                     1.00   0.00  0.00  0.00  1.00  0.00  0.00  0.00  0.00  0.00
  336                     1.00   0.00  0.00  0.00  1.00  0.00  0.00  0.00  0.00  0.00
  337                     1.00   0.00  0.00  0.00  1.00  0.00  0.00  0.00  0.00  0.00
  338                     1.00   0.00  0.00  0.00  1.00  0.00  0.00  0.00  0.00  0.00
  339                     1.00   0.00  0.00  0.00  1.00  0.00  0.00  0.00  0.00  0.00
  340                     1.00   0.00  0.00  0.00  1.00  0.00  0.00  0.00  0.00  0.00
  341                     1.00   0.00  0.00  0.00  1.00  0.00  0.00  0.00  0.01  0.00
  
  
  *************************
  Conduit Surcharge Summary
  *************************
  
  ----------------------------------------------------------------------------
                                                           Hours        Hours 
                         --------- Hours Full --------   Above Full   Capacity
  Conduit                Both Ends  Upstream  Dnstream   Normal Flow   Limited
  ----------------------------------------------------------------------------
  160                         0.01      0.01      0.66      0.01         0.01
  169                         0.01      0.01      0.65      0.01         0.01
  170                         0.65      0.65      1.33      0.01         0.01
  178                         0.01      0.01      0.63      0.01         0.01
  179                         0.63      0.63      1.31      0.01         0.01
  180                         1.31      1.31      1.96      0.01         0.01
  187                         0.01      0.01      0.62      0.01         0.01
  188                         0.62      0.62      1.29      0.01         0.01
  189                         1.29      1.29      1.94      0.01         0.01
  190                         1.94      1.94      2.51      0.01         0.01
  196                         0.01      0.01      0.62      0.01         0.01
  197                         0.62      0.62      1.27      0.01         0.01
  198                         1.27      1.27      1.91      0.01         0.01
  199                         1.91      1.91      2.47      0.01         0.01
  200                         2.47      2.47      2.97      0.01         0.01
  205                         0.01      0.01      0.63      0.01         0.01
  206                         0.63      0.63      1.29      0.01         0.01
  207                         1.29      1.29      1.91      0.01         0.01
  208                         1.91      1.91      2.45      0.01         0.01
  209                         2.45      2.45      2.92      0.01         0.01
  210                         2.92      2.92      3.36      0.01         0.01
  214                         0.01      0.01      0.65      0.01         0.01
  215                         0.65      0.65      1.31      0.01         0.01
  216                         1.31      1.31      1.94      0.01         0.01
  217                         1.94      1.94      2.47      0.01         0.01
  218                         2.47      2.47      2.92      0.01         0.01
  219                         2.92      2.92      3.30      0.01         0.01
  220                         3.30      3.30      3.66      0.01         0.01
  223                         0.01      0.01      0.66      0.01         0.01
  224                         0.66      0.66      1.33      0.01         0.01
  225                         1.33      1.33      1.96      0.01         0.01
  226                         1.96      1.96      2.51      0.01         0.01
  227                         2.51      2.51      2.97      0.01         0.01
  228                         2.97      2.97      3.36      0.01         0.01
  229                         3.36      3.36      3.66      0.01         0.01
  230                         3.66      3.66      3.67      3.61         3.63
  233                         0.01      0.01      0.66      0.01         0.01
  234                         0.66      0.66      1.33      0.01         0.01
  235                         1.33      1.33      1.96      0.01         0.01
  236                         1.96      1.96      2.51      0.01         0.01
  237                         2.51      2.51      2.97      0.01         0.01
  238                         2.97      2.97      3.36      0.01         0.01
  239                         3.36      3.36      3.66      0.01         0.01
  240                         3.66      3.66      3.67      3.61         3.63
  241                         0.01      3.67      0.01      5.83         0.70
  281                         0.01      0.01      0.66      0.01         0.01
  290                         0.01      0.01      0.65      0.01         0.01
  291                         0.65      0.65      1.33      0.01         0.01
  299                         0.01      0.01      0.63      0.01         0.01
  300                         0.63      0.63      1.31      0.01         0.01
  301                         1.31      1.31      1.96      0.01         0.01
  308                         0.01      0.01      0.62      0.01         0.01
  309                         0.62      0.62      1.29      0.01         0.01
  310                         1.29      1.29      1.94      0.01         0.01
  311                         1.94      1.94      2.51      0.01         0.01
  317                         0.01      0.01      0.62      0.01         0.01
  318                         0.62      0.62      1.27      0.01         0.01
  319                         1.27      1.27      1.91      0.01         0.01
  320                         1.91      1.91      2.47      0.01         0.01
  321                         2.47      2.47      2.97      0.01         0.01
  326                         0.01      0.01      0.63      0.01         0.01
  327                         0.63      0.63      1.29      0.01         0.01
  328                         1.29      1.29      1.91      0.01         0.01
  329                         1.91      1.91      2.45      0.01         0.01
  330                         2.45      2.45      2.92      0.01         0.01
  331                         2.92      2.92      3.36      0.01         0.01
  335                         0.01      0.01      0.65      0.01         0.01
  336                         0.65      0.65      1.31      0.01         0.01
  337                         1.31      1.31      1.94      0.01         0.01
  338                         1.94      1.94      2.47      0.01         0.01
  339                         2.47      2.47      2.92      0.01         0.01
  340                         2.92      2.92      3.30      0.01         0.01
  341                         3.30      3.30      3.66      0.01         0.01
  

  Analysis begun on:  Wed Dec 14 08:45:36 2022
  Analysis ended on:  Wed Dec 14 08:45:38 2022
  Total elapsed time: 00:00:02