
  EPA STORM WATER MANAGEMENT MODEL - VERSION 5.1 (Build 5.1.015)
  --------------------------------------------------------------

  WARNING 04: minimum elevation drop used for Conduit 241
  
  *********************************************************
  NOTE: The summary statistics displayed in this report are
  based on results found at every computational time step,  
  not just on results from each reporting time step.
  *********************************************************
  
  ****************
  Analysis Options
  ****************
  Flow Units ............... CMS
  Process Models:
    Rainfall/Runoff ........ NO
    RDII ................... NO
    Snowmelt ............... NO
    Groundwater ............ NO
    Flow Routing ........... YES
    Ponding Allowed ........ NO
    Water Quality .......... NO
  Flow Routing Method ...... DYNWAVE
  Surcharge Method ......... SLOT
  Starting Date ............ 10/31/2022 00:00:00
  Ending Date .............. 10/31/2022 06:00:00
  Antecedent Dry Days ...... 0.0
  Report Time Step ......... 00:00:10
  Routing Time Step ........ 1.00 sec
  Variable Time Step ....... NO
  Maximum Trials ........... 8
  Number of Threads ........ 6
  Head Tolerance ........... 0.001500 m
  
  
  **************************        Volume        Volume
  Flow Routing Continuity        hectare-m      10^6 ltr
  **************************     ---------     ---------
  Dry Weather Inflow .......         0.000         0.000
  Wet Weather Inflow .......         0.000         0.000
  Groundwater Inflow .......         0.000         0.000
  RDII Inflow ..............         0.000         0.000
  External Inflow ..........         4.541        45.406
  External Outflow .........         2.701        27.008
  Flooding Loss ............         0.000         0.000
  Evaporation Loss .........         0.000         0.000
  Exfiltration Loss ........         0.000         0.000
  Initial Stored Volume ....         0.000         0.000
  Final Stored Volume ......         1.784        17.837
  Continuity Error (%) .....         1.234
  
  
  *************************
  Highest Continuity Errors
  *************************
  Node B01 (24.24%)
  Node A01 (23.82%)
  Node B00 (23.82%)
  Node A09 (22.27%)
  Node J00 (22.27%)
  
  
  ********************************
  Highest Flow Instability Indexes
  ********************************
  All links are stable.
  
  
  *************************
  Routing Time Step Summary
  *************************
  Minimum Time Step           :     1.00 sec
  Average Time Step           :     1.00 sec
  Maximum Time Step           :     1.00 sec
  Percent in Steady State     :     0.00
  Average Iterations per Step :     2.00
  Percent Not Converging      :     0.00
  
  
  ******************
  Node Depth Summary
  ******************
  
  ---------------------------------------------------------------------------------
                                 Average  Maximum  Maximum  Time of Max    Reported
                                   Depth    Depth      HGL   Occurrence   Max Depth
  Node                 Type       Meters   Meters   Meters  days hr:min      Meters
  ---------------------------------------------------------------------------------
  A00                  JUNCTION     0.82     1.33     1.53     0  05:52        1.33
  A01                  JUNCTION     0.83     1.34     1.53     0  05:52        1.34
  A02                  JUNCTION     0.84     1.35     1.53     0  05:50        1.35
  A03                  JUNCTION     0.85     1.36     1.53     0  05:58        1.36
  A04                  JUNCTION     0.86     1.37     1.53     0  05:51        1.37
  A05                  JUNCTION     0.87     1.38     1.53     0  05:53        1.38
  A06                  JUNCTION     0.88     1.39     1.53     0  05:56        1.39
  A07                  JUNCTION     0.89     1.40     1.53     0  05:54        1.40
  A08                  JUNCTION     0.89     1.41     1.53     0  05:49        1.41
  A09                  JUNCTION     0.90     1.42     1.53     0  05:56        1.42
  A10                  JUNCTION     0.91     1.43     1.53     0  05:46        1.43
  B00                  JUNCTION     0.83     1.34     1.53     0  05:52        1.34
  B01                  JUNCTION     0.84     1.35     1.53     0  05:50        1.35
  B02                  JUNCTION     0.85     1.36     1.53     0  05:58        1.36
  B03                  JUNCTION     0.86     1.37     1.53     0  05:49        1.37
  B04                  JUNCTION     0.87     1.38     1.53     0  05:57        1.38
  B05                  JUNCTION     0.88     1.39     1.53     0  05:53        1.39
  B06                  JUNCTION     0.89     1.40     1.53     0  05:56        1.40
  B07                  JUNCTION     0.89     1.41     1.53     0  05:58        1.41
  B08                  JUNCTION     0.90     1.42     1.53     0  05:55        1.42
  B09                  JUNCTION     0.91     1.43     1.53     0  05:56        1.43
  B10                  JUNCTION     0.92     1.44     1.53     0  05:46        1.44
  C00                  JUNCTION     0.84     1.35     1.53     0  05:50        1.35
  C01                  JUNCTION     0.85     1.36     1.53     0  05:58        1.36
  C02                  JUNCTION     0.86     1.37     1.53     0  05:50        1.37
  C03                  JUNCTION     0.87     1.38     1.53     0  05:57        1.38
  C04                  JUNCTION     0.88     1.39     1.53     0  05:51        1.39
  C05                  JUNCTION     0.89     1.40     1.53     0  05:53        1.40
  C06                  JUNCTION     0.89     1.41     1.53     0  05:54        1.41
  C07                  JUNCTION     0.90     1.42     1.53     0  05:54        1.42
  C08                  JUNCTION     0.91     1.43     1.53     0  05:58        1.43
  C09                  JUNCTION     0.92     1.44     1.53     0  05:56        1.44
  C10                  JUNCTION     0.93     1.45     1.53     0  05:46        1.45
  D00                  JUNCTION     0.85     1.36     1.53     0  05:58        1.36
  D01                  JUNCTION     0.86     1.37     1.53     0  05:49        1.37
  D02                  JUNCTION     0.87     1.38     1.53     0  05:57        1.38
  D03                  JUNCTION     0.88     1.39     1.53     0  05:51        1.39
  D04                  JUNCTION     0.89     1.40     1.53     0  05:53        1.40
  D05                  JUNCTION     0.89     1.41     1.53     0  05:53        1.41
  D06                  JUNCTION     0.90     1.42     1.53     0  05:55        1.42
  D07                  JUNCTION     0.91     1.43     1.53     0  05:54        1.43
  D08                  JUNCTION     0.92     1.44     1.53     0  05:55        1.44
  D09                  JUNCTION     0.93     1.45     1.53     0  05:57        1.45
  D10                  JUNCTION     0.94     1.46     1.53     0  05:50        1.46
  E00                  JUNCTION     0.86     1.37     1.53     0  05:51        1.37
  E01                  JUNCTION     0.87     1.38     1.53     0  05:57        1.38
  E02                  JUNCTION     0.88     1.39     1.53     0  05:51        1.39
  E03                  JUNCTION     0.89     1.40     1.53     0  05:53        1.40
  E04                  JUNCTION     0.89     1.41     1.53     0  05:53        1.41
  E05                  JUNCTION     0.90     1.42     1.53     0  05:53        1.42
  E06                  JUNCTION     0.91     1.43     1.53     0  05:53        1.43
  E07                  JUNCTION     0.92     1.44     1.53     0  05:55        1.44
  E08                  JUNCTION     0.93     1.45     1.53     0  05:55        1.45
  E09                  JUNCTION     0.94     1.46     1.53     0  05:57        1.46
  E10                  JUNCTION     0.95     1.47     1.53     0  05:50        1.47
  F00                  JUNCTION     0.87     1.38     1.53     0  05:53        1.38
  F01                  JUNCTION     0.88     1.39     1.53     0  05:53        1.39
  F02                  JUNCTION     0.89     1.40     1.53     0  05:53        1.40
  F03                  JUNCTION     0.89     1.41     1.53     0  05:53        1.41
  F04                  JUNCTION     0.90     1.42     1.53     0  05:53        1.42
  F05                  JUNCTION     0.91     1.43     1.53     0  05:53        1.43
  F06                  JUNCTION     0.92     1.44     1.53     0  05:59        1.44
  F07                  JUNCTION     0.93     1.45     1.53     0  05:53        1.45
  F08                  JUNCTION     0.94     1.46     1.53     0  05:59        1.46
  F09                  JUNCTION     0.95     1.47     1.53     0  05:50        1.47
  F10                  JUNCTION     0.96     1.48     1.53     0  06:00        1.48
  G00                  JUNCTION     0.88     1.39     1.53     0  05:56        1.39
  G01                  JUNCTION     0.89     1.40     1.53     0  05:56        1.40
  G02                  JUNCTION     0.89     1.41     1.53     0  05:54        1.41
  G03                  JUNCTION     0.90     1.42     1.53     0  05:55        1.42
  G04                  JUNCTION     0.91     1.43     1.53     0  05:53        1.43
  G05                  JUNCTION     0.92     1.44     1.53     0  05:59        1.44
  G06                  JUNCTION     0.93     1.45     1.53     0  05:54        1.45
  G07                  JUNCTION     0.94     1.46     1.53     0  05:59        1.46
  G08                  JUNCTION     0.95     1.47     1.53     0  05:59        1.47
  G09                  JUNCTION     0.96     1.48     1.53     0  05:59        1.48
  G10                  JUNCTION     0.97     1.49     1.53     0  06:00        1.49
  H00                  JUNCTION     0.89     1.40     1.53     0  05:54        1.40
  H01                  JUNCTION     0.89     1.41     1.53     0  05:58        1.41
  H02                  JUNCTION     0.90     1.42     1.53     0  05:54        1.42
  H03                  JUNCTION     0.91     1.43     1.53     0  05:54        1.43
  H04                  JUNCTION     0.92     1.44     1.53     0  05:55        1.44
  H05                  JUNCTION     0.93     1.45     1.53     0  05:53        1.45
  H06                  JUNCTION     0.94     1.46     1.53     0  05:59        1.46
  H07                  JUNCTION     0.95     1.47     1.53     0  05:59        1.47
  H08                  JUNCTION     0.96     1.47     1.52     0  05:59        1.47
  H09                  JUNCTION     0.96     1.48     1.52     0  05:58        1.48
  H10                  JUNCTION     0.97     1.49     1.52     0  05:59        1.49
  I00                  JUNCTION     0.89     1.41     1.53     0  05:49        1.41
  I01                  JUNCTION     0.90     1.42     1.53     0  05:55        1.42
  I02                  JUNCTION     0.91     1.43     1.53     0  05:58        1.43
  I03                  JUNCTION     0.92     1.44     1.53     0  05:55        1.44
  I04                  JUNCTION     0.93     1.45     1.53     0  05:55        1.45
  I05                  JUNCTION     0.94     1.46     1.53     0  05:59        1.46
  I06                  JUNCTION     0.95     1.47     1.53     0  05:59        1.47
  I07                  JUNCTION     0.96     1.47     1.52     0  05:59        1.47
  I08                  JUNCTION     0.96     1.48     1.52     0  05:58        1.48
  I09                  JUNCTION     0.97     1.48     1.51     0  05:56        1.48
  I10                  JUNCTION     0.98     1.49     1.51     0  05:58        1.49
  J00                  JUNCTION     0.90     1.42     1.53     0  05:56        1.42
  J01                  JUNCTION     0.91     1.43     1.53     0  05:56        1.43
  J02                  JUNCTION     0.92     1.44     1.53     0  05:56        1.44
  J03                  JUNCTION     0.93     1.45     1.53     0  05:57        1.45
  J04                  JUNCTION     0.94     1.46     1.53     0  05:57        1.46
  J05                  JUNCTION     0.95     1.47     1.53     0  05:50        1.47
  J06                  JUNCTION     0.96     1.48     1.53     0  05:59        1.48
  J07                  JUNCTION     0.96     1.48     1.52     0  05:58        1.48
  J08                  JUNCTION     0.97     1.48     1.51     0  05:56        1.48
  J09                  JUNCTION     0.97     1.47     1.49     0  05:56        1.47
  J10                  JUNCTION     0.97     1.46     1.47     0  05:58        1.46
  K00                  JUNCTION     0.91     1.43     1.53     0  05:46        1.43
  K01                  JUNCTION     0.92     1.44     1.53     0  05:46        1.44
  K02                  JUNCTION     0.93     1.45     1.53     0  05:46        1.45
  K03                  JUNCTION     0.94     1.46     1.53     0  05:50        1.46
  K04                  JUNCTION     0.95     1.47     1.53     0  05:50        1.47
  K05                  JUNCTION     0.96     1.48     1.53     0  06:00        1.48
  K06                  JUNCTION     0.97     1.49     1.53     0  06:00        1.49
  K07                  JUNCTION     0.97     1.49     1.52     0  05:59        1.49
  K08                  JUNCTION     0.98     1.49     1.51     0  05:58        1.49
  K09                  JUNCTION     0.97     1.46     1.47     0  05:58        1.46
  K10                  JUNCTION     0.92     1.37     1.37     0  05:58        1.37
  Outfall              OUTFALL      0.60     0.83     0.83     0  05:58        0.83
  
  
  *******************
  Node Inflow Summary
  *******************
  
  -------------------------------------------------------------------------------------------------
                                  Maximum  Maximum                  Lateral       Total        Flow
                                  Lateral    Total  Time of Max      Inflow      Inflow     Balance
                                   Inflow   Inflow   Occurrence      Volume      Volume       Error
  Node                 Type           CMS      CMS  days hr:min    10^6 ltr    10^6 ltr     Percent
  -------------------------------------------------------------------------------------------------
  A00                  JUNCTION     0.017    0.017     0  00:00       0.375       0.375      28.230
  A01                  JUNCTION     0.017    0.026     0  04:59       0.375       0.522      31.265
  A02                  JUNCTION     0.017    0.034     0  05:08       0.375       0.619      25.127
  A03                  JUNCTION     0.017    0.042     0  05:39       0.375       0.702      21.566
  A04                  JUNCTION     0.017    0.047     0  05:58       0.375       0.758      19.657
  A05                  JUNCTION     0.017    0.049     0  05:46       0.375       0.781      18.982
  A06                  JUNCTION     0.017    0.048     0  05:53       0.375       0.768      19.382
  A07                  JUNCTION     0.017    0.045     0  04:56       0.375       0.722      20.904
  A08                  JUNCTION     0.017    0.039     0  05:05       0.375        0.65      23.812
  A09                  JUNCTION     0.017    0.033     0  04:51       0.375       0.562      28.646
  A10                  JUNCTION     0.017    0.025     0  04:48       0.375       0.457      22.327
  B00                  JUNCTION     0.017    0.026     0  04:59       0.375       0.522      31.265
  B01                  JUNCTION     0.017    0.036     0  04:26       0.375       0.685      31.999
  B02                  JUNCTION     0.017    0.046     0  04:50       0.375       0.806      25.975
  B03                  JUNCTION     0.017    0.055     0  04:59       0.375        0.92      22.070
  B04                  JUNCTION     0.017    0.063     0  05:12       0.375        1.01      19.631
  B05                  JUNCTION     0.017    0.069     0  05:15       0.375        1.08      18.311
  B06                  JUNCTION     0.017    0.071     0  05:07       0.375         1.1      17.918
  B07                  JUNCTION     0.017    0.069     0  04:56       0.375        1.07      18.385
  B08                  JUNCTION     0.017    0.065     0  05:05       0.375        1.01      19.739
  B09                  JUNCTION     0.017    0.058     0  04:53       0.375       0.927      21.985
  B10                  JUNCTION     0.017    0.051     0  04:53       0.375       0.824      17.928
  C00                  JUNCTION     0.017    0.034     0  05:08       0.375       0.619      25.127
  C01                  JUNCTION     0.017    0.046     0  04:50       0.375       0.806      25.975
  C02                  JUNCTION     0.017    0.058     0  04:38       0.375        0.96      20.950
  C03                  JUNCTION     0.017    0.071     0  05:03       0.375        1.12      17.508
  C04                  JUNCTION     0.017    0.083     0  05:12       0.375        1.26      15.216
  C05                  JUNCTION     0.017    0.092     0  05:18       0.375        1.37      13.818
  C06                  JUNCTION     0.017    0.098     0  05:15       0.375        1.43      13.150
  C07                  JUNCTION     0.017    0.098     0  05:17       0.375        1.44      13.121
  C08                  JUNCTION     0.017    0.095     0  05:05       0.375        1.39      13.690
  C09                  JUNCTION     0.017    0.087     0  05:11       0.375        1.29      14.816
  C10                  JUNCTION     0.017    0.078     0  04:53       0.375        1.17      11.972
  D00                  JUNCTION     0.017    0.042     0  05:39       0.375       0.702      21.566
  D01                  JUNCTION     0.017    0.055     0  04:59       0.375        0.92      22.070
  D02                  JUNCTION     0.017    0.071     0  05:03       0.375        1.12      17.508
  D03                  JUNCTION     0.017    0.088     0  05:03       0.375        1.33      14.324
  D04                  JUNCTION     0.017    0.105     0  05:46       0.375        1.54      12.141
  D05                  JUNCTION     0.017    0.120     0  05:15       0.375        1.72      10.736
  D06                  JUNCTION     0.017    0.131     0  05:34       0.375        1.84       9.956
  D07                  JUNCTION     0.017    0.134     0  05:33       0.375        1.89       9.714
  D08                  JUNCTION     0.017    0.131     0  05:23       0.375        1.84       9.971
  D09                  JUNCTION     0.017    0.122     0  05:11       0.375        1.73      10.701
  D10                  JUNCTION     0.017    0.109     0  05:29       0.375        1.57       8.696
  E00                  JUNCTION     0.017    0.047     0  05:58       0.375       0.758      19.657
  E01                  JUNCTION     0.017    0.063     0  05:12       0.375        1.01      19.631
  E02                  JUNCTION     0.017    0.083     0  05:12       0.375        1.26      15.216
  E03                  JUNCTION     0.017    0.105     0  05:46       0.375        1.54      12.141
  E04                  JUNCTION     0.017    0.129     0  05:25       0.375        1.83      10.010
  E05                  JUNCTION     0.017    0.152     0  05:53       0.375        2.11       8.588
  E06                  JUNCTION     0.017    0.170     0  05:43       0.375        2.33       7.728
  E07                  JUNCTION     0.017    0.179     0  05:44       0.375        2.44       7.347
  E08                  JUNCTION     0.017    0.177     0  05:37       0.375        2.42       7.417
  E09                  JUNCTION     0.017    0.165     0  05:50       0.375        2.28       7.931
  E10                  JUNCTION     0.017    0.147     0  05:29       0.375        2.05       6.535
  F00                  JUNCTION     0.017    0.049     0  05:46       0.375       0.781      18.982
  F01                  JUNCTION     0.017    0.069     0  05:15       0.375        1.08      18.311
  F02                  JUNCTION     0.017    0.092     0  05:18       0.375        1.37      13.818
  F03                  JUNCTION     0.017    0.120     0  05:15       0.375        1.72      10.736
  F04                  JUNCTION     0.017    0.152     0  05:53       0.375        2.11       8.588
  F05                  JUNCTION     0.017    0.184     0  05:49       0.375        2.51       7.116
  F06                  JUNCTION     0.017    0.213     0  05:53       0.375        2.88       6.165
  F07                  JUNCTION     0.017    0.233     0  05:44       0.375        3.12       5.651
  F08                  JUNCTION     0.017    0.237     0  05:48       0.375        3.18       5.553
  F09                  JUNCTION     0.017    0.223     0  05:50       0.375        3.01       5.889
  F10                  JUNCTION     0.017    0.196     0  05:40       0.375        2.67       4.940
  G00                  JUNCTION     0.017    0.048     0  05:53       0.375       0.768      19.382
  G01                  JUNCTION     0.017    0.071     0  05:07       0.375         1.1      17.918
  G02                  JUNCTION     0.017    0.098     0  05:15       0.375        1.43      13.150
  G03                  JUNCTION     0.017    0.131     0  05:34       0.375        1.84       9.956
  G04                  JUNCTION     0.017    0.170     0  05:43       0.375        2.33       7.728
  G05                  JUNCTION     0.017    0.213     0  05:53       0.375        2.88       6.165
  G06                  JUNCTION     0.017    0.259     0  05:53       0.375        3.44       5.098
  G07                  JUNCTION     0.017    0.297     0  05:49       0.375        3.93       4.438
  G08                  JUNCTION     0.017    0.317     0  05:59       0.375        4.19       4.161
  G09                  JUNCTION     0.017    0.306     0  05:50       0.375        4.06       4.303
  G10                  JUNCTION     0.017    0.265     0  05:51       0.375        3.55       3.669
  H00                  JUNCTION     0.017    0.045     0  04:56       0.375       0.722      20.904
  H01                  JUNCTION     0.017    0.069     0  04:56       0.375        1.07      18.385
  H02                  JUNCTION     0.017    0.098     0  05:17       0.375        1.44      13.121
  H03                  JUNCTION     0.017    0.134     0  05:33       0.375        1.89       9.714
  H04                  JUNCTION     0.017    0.179     0  05:44       0.375        2.44       7.347
  H05                  JUNCTION     0.017    0.233     0  05:44       0.375        3.12       5.651
  H06                  JUNCTION     0.017    0.297     0  05:49       0.375        3.93       4.438
  H07                  JUNCTION     0.017    0.365     0  05:51       0.375         4.8       3.612
  H08                  JUNCTION     0.017    0.419     0  05:59       0.375         5.5       3.139
  H09                  JUNCTION     0.017    0.431     0  05:59       0.375        5.65       3.053
  H10                  JUNCTION     0.017    0.376     0  05:55       0.375        4.96       2.596
  I00                  JUNCTION     0.017    0.039     0  05:05       0.375        0.65      23.812
  I01                  JUNCTION     0.017    0.065     0  05:05       0.375        1.01      19.739
  I02                  JUNCTION     0.017    0.095     0  05:05       0.375        1.39      13.690
  I03                  JUNCTION     0.017    0.131     0  05:23       0.375        1.84       9.971
  I04                  JUNCTION     0.017    0.177     0  05:37       0.375        2.42       7.417
  I05                  JUNCTION     0.017    0.237     0  05:48       0.375        3.18       5.553
  I06                  JUNCTION     0.017    0.317     0  05:59       0.375        4.19       4.161
  I07                  JUNCTION     0.017    0.419     0  05:59       0.375         5.5       3.139
  I08                  JUNCTION     0.017    0.536     0  05:59       0.375           7       2.451
  I09                  JUNCTION     0.017    0.623     0  06:00       0.375        8.11       2.108
  I10                  JUNCTION     0.017    0.585     0  05:55       0.375        7.64       1.673
  J00                  JUNCTION     0.017    0.033     0  04:51       0.375       0.562      28.646
  J01                  JUNCTION     0.017    0.058     0  04:53       0.375       0.927      21.985
  J02                  JUNCTION     0.017    0.087     0  05:11       0.375        1.29      14.816
  J03                  JUNCTION     0.017    0.122     0  05:11       0.375        1.73      10.701
  J04                  JUNCTION     0.017    0.165     0  05:50       0.375        2.28       7.931
  J05                  JUNCTION     0.017    0.223     0  05:50       0.375        3.01       5.889
  J06                  JUNCTION     0.017    0.306     0  05:50       0.375        4.06       4.303
  J07                  JUNCTION     0.017    0.431     0  05:59       0.375        5.65       3.053
  J08                  JUNCTION     0.017    0.623     0  06:00       0.375        8.11       2.108
  J09                  JUNCTION     0.017    0.880     0  06:00       0.375        11.4       1.489
  J10                  JUNCTION     0.017    1.042     0  06:00       0.375        13.5       0.939
  K00                  JUNCTION     0.017    0.025     0  04:48       0.375       0.457      22.327
  K01                  JUNCTION     0.017    0.051     0  04:53       0.375       0.824      17.928
  K02                  JUNCTION     0.017    0.078     0  04:53       0.375        1.17      11.972
  K03                  JUNCTION     0.017    0.109     0  05:29       0.375        1.57       8.696
  K04                  JUNCTION     0.017    0.147     0  05:29       0.375        2.05       6.535
  K05                  JUNCTION     0.017    0.196     0  05:40       0.375        2.67       4.940
  K06                  JUNCTION     0.017    0.265     0  05:51       0.375        3.55       3.669
  K07                  JUNCTION     0.017    0.376     0  05:55       0.375        4.96       2.596
  K08                  JUNCTION     0.017    0.585     0  05:55       0.375        7.64       1.673
  K09                  JUNCTION     0.017    1.042     0  06:00       0.375        13.5       0.939
  K10                  JUNCTION     0.017    2.102     0  05:58       0.375        27.1       0.471
  Outfall              OUTFALL      0.000    2.102     0  05:58           0          27       0.000
  
  
  **********************
  Node Surcharge Summary
  **********************
  
  Surcharging occurs when water rises above the top of the highest conduit.
  ---------------------------------------------------------------------
                                               Max. Height   Min. Depth
                                   Hours       Above Crown    Below Rim
  Node                 Type      Surcharged         Meters       Meters
  ---------------------------------------------------------------------
  A00                  JUNCTION        2.41          0.335        8.665
  A01                  JUNCTION        2.43          0.345        8.655
  A02                  JUNCTION        2.45          0.355        8.645
  A03                  JUNCTION        2.47          0.365        8.635
  A04                  JUNCTION        2.49          0.374        8.626
  A05                  JUNCTION        2.51          0.384        8.616
  A06                  JUNCTION        2.53          0.394        8.606
  A07                  JUNCTION        2.55          0.404        8.596
  A08                  JUNCTION        2.57          0.414        8.586
  A09                  JUNCTION        2.59          0.424        8.576
  A10                  JUNCTION        2.61          0.434        8.566
  B00                  JUNCTION        2.43          0.345        8.655
  B01                  JUNCTION        2.45          0.355        8.645
  B02                  JUNCTION        2.47          0.365        8.635
  B03                  JUNCTION        2.49          0.375        8.625
  B04                  JUNCTION        2.51          0.384        8.616
  B05                  JUNCTION        2.53          0.394        8.606
  B06                  JUNCTION        2.55          0.404        8.596
  B07                  JUNCTION        2.57          0.414        8.586
  B08                  JUNCTION        2.59          0.424        8.576
  B09                  JUNCTION        2.61          0.434        8.566
  B10                  JUNCTION        2.64          0.444        8.556
  C00                  JUNCTION        2.45          0.355        8.645
  C01                  JUNCTION        2.47          0.365        8.635
  C02                  JUNCTION        2.49          0.375        8.625
  C03                  JUNCTION        2.51          0.384        8.616
  C04                  JUNCTION        2.53          0.394        8.606
  C05                  JUNCTION        2.55          0.404        8.596
  C06                  JUNCTION        2.57          0.414        8.586
  C07                  JUNCTION        2.59          0.424        8.576
  C08                  JUNCTION        2.61          0.434        8.566
  C09                  JUNCTION        2.64          0.444        8.556
  C10                  JUNCTION        2.66          0.454        8.546
  D00                  JUNCTION        2.47          0.365        8.635
  D01                  JUNCTION        2.49          0.375        8.625
  D02                  JUNCTION        2.51          0.384        8.616
  D03                  JUNCTION        2.53          0.394        8.606
  D04                  JUNCTION        2.55          0.404        8.596
  D05                  JUNCTION        2.57          0.414        8.586
  D06                  JUNCTION        2.59          0.424        8.576
  D07                  JUNCTION        2.61          0.433        8.567
  D08                  JUNCTION        2.64          0.443        8.557
  D09                  JUNCTION        2.66          0.453        8.547
  D10                  JUNCTION        2.69          0.463        8.537
  E00                  JUNCTION        2.49          0.374        8.626
  E01                  JUNCTION        2.51          0.384        8.616
  E02                  JUNCTION        2.53          0.394        8.606
  E03                  JUNCTION        2.55          0.404        8.596
  E04                  JUNCTION        2.57          0.414        8.586
  E05                  JUNCTION        2.59          0.423        8.577
  E06                  JUNCTION        2.61          0.433        8.567
  E07                  JUNCTION        2.64          0.443        8.557
  E08                  JUNCTION        2.66          0.452        8.548
  E09                  JUNCTION        2.69          0.462        8.538
  E10                  JUNCTION        2.72          0.472        8.528
  F00                  JUNCTION        2.51          0.384        8.616
  F01                  JUNCTION        2.53          0.394        8.606
  F02                  JUNCTION        2.55          0.404        8.596
  F03                  JUNCTION        2.57          0.414        8.586
  F04                  JUNCTION        2.59          0.423        8.577
  F05                  JUNCTION        2.61          0.433        8.567
  F06                  JUNCTION        2.64          0.442        8.558
  F07                  JUNCTION        2.66          0.451        8.549
  F08                  JUNCTION        2.69          0.460        8.540
  F09                  JUNCTION        2.72          0.470        8.530
  F10                  JUNCTION        2.75          0.480        8.520
  G00                  JUNCTION        2.53          0.394        8.606
  G01                  JUNCTION        2.55          0.404        8.596
  G02                  JUNCTION        2.57          0.414        8.586
  G03                  JUNCTION        2.59          0.424        8.576
  G04                  JUNCTION        2.61          0.433        8.567
  G05                  JUNCTION        2.64          0.442        8.558
  G06                  JUNCTION        2.66          0.451        8.549
  G07                  JUNCTION        2.69          0.459        8.541
  G08                  JUNCTION        2.72          0.467        8.533
  G09                  JUNCTION        2.75          0.476        8.524
  G10                  JUNCTION        2.78          0.486        8.514
  H00                  JUNCTION        2.55          0.404        8.596
  H01                  JUNCTION        2.57          0.414        8.586
  H02                  JUNCTION        2.59          0.424        8.576
  H03                  JUNCTION        2.61          0.433        8.567
  H04                  JUNCTION        2.64          0.443        8.557
  H05                  JUNCTION        2.66          0.451        8.549
  H06                  JUNCTION        2.69          0.459        8.541
  H07                  JUNCTION        2.71          0.466        8.534
  H08                  JUNCTION        2.74          0.473        8.527
  H09                  JUNCTION        2.78          0.480        8.520
  H10                  JUNCTION        2.81          0.489        8.511
  I00                  JUNCTION        2.57          0.414        8.586
  I01                  JUNCTION        2.59          0.424        8.576
  I02                  JUNCTION        2.61          0.434        8.566
  I03                  JUNCTION        2.64          0.443        8.557
  I04                  JUNCTION        2.66          0.452        8.548
  I05                  JUNCTION        2.69          0.460        8.540
  I06                  JUNCTION        2.72          0.467        8.533
  I07                  JUNCTION        2.74          0.473        8.527
  I08                  JUNCTION        2.77          0.476        8.524
  I09                  JUNCTION        2.80          0.479        8.521
  I10                  JUNCTION        2.83          0.485        8.515
  J00                  JUNCTION        2.59          0.424        8.576
  J01                  JUNCTION        2.61          0.434        8.566
  J02                  JUNCTION        2.64          0.444        8.556
  J03                  JUNCTION        2.66          0.453        8.547
  J04                  JUNCTION        2.69          0.462        8.538
  J05                  JUNCTION        2.72          0.470        8.530
  J06                  JUNCTION        2.75          0.476        8.524
  J07                  JUNCTION        2.78          0.480        8.520
  J08                  JUNCTION        2.80          0.479        8.521
  J09                  JUNCTION        2.80          0.471        8.529
  J10                  JUNCTION        2.81          0.462        8.538
  K00                  JUNCTION        2.61          0.434        8.566
  K01                  JUNCTION        2.64          0.444        8.556
  K02                  JUNCTION        2.66          0.454        8.546
  K03                  JUNCTION        2.69          0.463        8.537
  K04                  JUNCTION        2.72          0.472        8.528
  K05                  JUNCTION        2.75          0.480        8.520
  K06                  JUNCTION        2.78          0.486        8.514
  K07                  JUNCTION        2.81          0.489        8.511
  K08                  JUNCTION        2.83          0.485        8.515
  K09                  JUNCTION        2.81          0.462        8.538
  K10                  JUNCTION        2.66          0.366        8.634
  
  
  *********************
  Node Flooding Summary
  *********************
  
  No nodes were flooded.
  
  
  ***********************
  Outfall Loading Summary
  ***********************
  
  -----------------------------------------------------------
                         Flow       Avg       Max       Total
                         Freq      Flow      Flow      Volume
  Outfall Node           Pcnt       CMS       CMS    10^6 ltr
  -----------------------------------------------------------
  Outfall               99.91     1.252     2.102      27.008
  -----------------------------------------------------------
  System                99.91     1.252     2.102      27.008
  
  
  ********************
  Link Flow Summary
  ********************
  
  -----------------------------------------------------------------------------
                                 Maximum  Time of Max   Maximum    Max/    Max/
                                  |Flow|   Occurrence   |Veloc|    Full    Full
  Link                 Type          CMS  days hr:min     m/sec    Flow   Depth
  -----------------------------------------------------------------------------
  121                  CONDUIT     0.009     0  04:59      0.18    0.03    1.00
  122                  CONDUIT     0.017     0  05:08      0.17    0.05    1.00
  123                  CONDUIT     0.024     0  05:39      0.18    0.08    1.00
  124                  CONDUIT     0.029     0  05:58      0.20    0.09    1.00
  125                  CONDUIT     0.032     0  05:46      0.20    0.10    1.00
  126                  CONDUIT     0.031     0  05:53      0.19    0.10    1.00
  127                  CONDUIT     0.027     0  04:56      0.17    0.09    1.00
  128                  CONDUIT     0.022     0  05:05      0.14    0.07    1.00
  129                  CONDUIT     0.015     0  04:51      0.10    0.05    1.00
  130                  CONDUIT     0.008     0  04:48      0.06    0.03    1.00
  131                  CONDUIT     0.009     0  04:26      0.18    0.03    1.00
  132                  CONDUIT     0.018     0  04:38      0.18    0.06    1.00
  133                  CONDUIT     0.025     0  05:03      0.19    0.08    1.00
  134                  CONDUIT     0.031     0  05:14      0.20    0.10    1.00
  135                  CONDUIT     0.033     0  05:15      0.21    0.11    1.00
  136                  CONDUIT     0.033     0  04:58      0.20    0.10    1.00
  137                  CONDUIT     0.029     0  04:56      0.17    0.09    1.00
  138                  CONDUIT     0.023     0  04:52      0.15    0.08    1.00
  139                  CONDUIT     0.016     0  04:43      0.11    0.05    1.00
  140                  CONDUIT     0.008     0  04:42      0.06    0.03    1.00
  141                  CONDUIT     0.010     0  04:26      0.18    0.03    1.00
  142                  CONDUIT     0.020     0  04:38      0.19    0.07    1.00
  143                  CONDUIT     0.029     0  04:49      0.20    0.09    1.00
  144                  CONDUIT     0.035     0  05:14      0.21    0.11    1.00
  145                  CONDUIT     0.039     0  05:15      0.21    0.12    1.00
  146                  CONDUIT     0.039     0  05:07      0.20    0.12    1.00
  147                  CONDUIT     0.035     0  04:56      0.18    0.11    1.00
  148                  CONDUIT     0.028     0  04:52      0.15    0.09    1.00
  149                  CONDUIT     0.020     0  04:43      0.11    0.06    1.00
  150                  CONDUIT     0.010     0  04:43      0.06    0.03    1.00
  151                  CONDUIT     0.012     0  04:59      0.18    0.04    1.00
  152                  CONDUIT     0.024     0  05:08      0.19    0.08    1.00
  153                  CONDUIT     0.035     0  05:03      0.20    0.11    1.00
  154                  CONDUIT     0.044     0  05:14      0.21    0.14    1.00
  155                  CONDUIT     0.049     0  05:15      0.22    0.16    1.00
  156                  CONDUIT     0.051     0  05:07      0.20    0.16    1.00
  157                  CONDUIT     0.047     0  04:56      0.18    0.15    1.00
  158                  CONDUIT     0.039     0  05:05      0.15    0.12    1.00
  159                  CONDUIT     0.027     0  05:11      0.11    0.09    1.00
  160                  CONDUIT     0.014     0  04:43      0.05    0.04    1.00
  161                  CONDUIT     0.015     0  05:09      0.18    0.05    1.00
  162                  CONDUIT     0.030     0  05:36      0.18    0.10    1.00
  163                  CONDUIT     0.044     0  05:39      0.20    0.14    1.00
  164                  CONDUIT     0.056     0  05:25      0.21    0.18    1.00
  165                  CONDUIT     0.065     0  05:35      0.22    0.21    1.00
  166                  CONDUIT     0.068     0  05:21      0.20    0.22    1.00
  167                  CONDUIT     0.066     0  05:44      0.18    0.21    1.00
  168                  CONDUIT     0.056     0  05:37      0.15    0.18    1.00
  169                  CONDUIT     0.040     0  05:19      0.11    0.13    1.00
  170                  CONDUIT     0.020     0  05:29      0.05    0.07    1.00
  171                  CONDUIT     0.018     0  05:27      0.18    0.06    1.00
  172                  CONDUIT     0.036     0  05:48      0.18    0.12    1.00
  173                  CONDUIT     0.054     0  05:47      0.20    0.17    1.00
  174                  CONDUIT     0.070     0  05:25      0.21    0.22    1.00
  175                  CONDUIT     0.084     0  05:49      0.22    0.27    1.00
  176                  CONDUIT     0.092     0  05:21      0.20    0.30    1.00
  177                  CONDUIT     0.093     0  05:44      0.18    0.30    1.00
  178                  CONDUIT     0.083     0  05:37      0.15    0.27    1.00
  179                  CONDUIT     0.061     0  05:50      0.11    0.20    1.00
  180                  CONDUIT     0.032     0  05:29      0.05    0.10    1.00
  181                  CONDUIT     0.021     0  05:43      0.18    0.07    1.00
  182                  CONDUIT     0.042     0  05:36      0.18    0.13    1.00
  183                  CONDUIT     0.063     0  05:47      0.20    0.20    1.00
  184                  CONDUIT     0.084     0  05:49      0.21    0.27    1.00
  185                  CONDUIT     0.104     0  05:42      0.22    0.33    1.00
  186                  CONDUIT     0.121     0  05:53      0.20    0.39    1.00
  187                  CONDUIT     0.129     0  05:44      0.18    0.41    1.00
  188                  CONDUIT     0.123     0  05:37      0.16    0.40    1.00
  189                  CONDUIT     0.097     0  05:50      0.12    0.31    1.00
  190                  CONDUIT     0.052     0  05:29      0.07    0.17    1.00
  191                  CONDUIT     0.023     0  05:26      0.18    0.07    1.00
  192                  CONDUIT     0.046     0  05:47      0.19    0.15    1.00
  193                  CONDUIT     0.070     0  05:35      0.20    0.22    1.00
  194                  CONDUIT     0.096     0  05:33      0.22    0.31    1.00
  195                  CONDUIT     0.123     0  05:56      0.22    0.39    1.00
  196                  CONDUIT     0.150     0  05:43      0.20    0.48    1.00
  197                  CONDUIT     0.174     0  05:51      0.22    0.56    1.00
  198                  CONDUIT     0.182     0  05:59      0.23    0.59    1.00
  199                  CONDUIT     0.160     0  05:50      0.20    0.51    1.00
  200                  CONDUIT     0.094     0  05:29      0.12    0.30    1.00
  201                  CONDUIT     0.024     0  05:44      0.18    0.08    1.00
  202                  CONDUIT     0.049     0  05:34      0.19    0.16    1.00
  203                  CONDUIT     0.075     0  05:26      0.21    0.24    1.00
  204                  CONDUIT     0.104     0  05:49      0.22    0.33    1.00
  205                  CONDUIT     0.137     0  05:44      0.22    0.44    1.00
  206                  CONDUIT     0.176     0  05:56      0.22    0.56    1.00
  207                  CONDUIT     0.220     0  05:51      0.28    0.70    1.00
  208                  CONDUIT     0.260     0  05:59      0.33    0.83    1.00
  209                  CONDUIT     0.268     0  05:50      0.34    0.86    1.00
  210                  CONDUIT     0.192     0  05:55      0.24    0.61    1.00
  211                  CONDUIT     0.025     0  05:45      0.20    0.08    1.00
  212                  CONDUIT     0.050     0  05:08      0.20    0.16    1.00
  213                  CONDUIT     0.077     0  05:23      0.21    0.25    1.00
  214                  CONDUIT     0.108     0  05:29      0.22    0.35    1.00
  215                  CONDUIT     0.145     0  05:42      0.23    0.46    1.00
  216                  CONDUIT     0.191     0  05:56      0.24    0.61    1.00
  217                  CONDUIT     0.254     0  05:56      0.32    0.81    1.00
  218                  CONDUIT     0.337     0  05:56      0.43    1.08    1.00
  219                  CONDUIT     0.431     0  06:00      0.55    1.38    1.00
  220                  CONDUIT     0.440     0  05:59      0.56    1.41    1.00
  221                  CONDUIT     0.025     0  04:53      0.19    0.08    1.00
  222                  CONDUIT     0.050     0  05:09      0.20    0.16    1.00
  223                  CONDUIT     0.078     0  05:21      0.22    0.25    1.00
  224                  CONDUIT     0.109     0  05:21      0.23    0.35    1.00
  225                  CONDUIT     0.147     0  05:50      0.23    0.47    1.00
  226                  CONDUIT     0.196     0  05:50      0.25    0.63    1.00
  227                  CONDUIT     0.265     0  05:58      0.34    0.85    1.00
  228                  CONDUIT     0.376     0  05:56      0.48    1.21    1.00
  229                  CONDUIT     0.585     0  06:00      0.75    1.88    1.00
  230                  CONDUIT     1.042     0  05:58      1.33    3.34    1.00
  231                  CONDUIT     0.025     0  04:53      0.19    0.08    1.00
  232                  CONDUIT     0.050     0  05:09      0.20    0.16    1.00
  233                  CONDUIT     0.078     0  05:21      0.22    0.25    1.00
  234                  CONDUIT     0.109     0  05:21      0.23    0.35    1.00
  235                  CONDUIT     0.147     0  05:50      0.23    0.47    1.00
  236                  CONDUIT     0.196     0  05:50      0.25    0.63    1.00
  237                  CONDUIT     0.265     0  05:58      0.34    0.85    1.00
  238                  CONDUIT     0.376     0  05:56      0.48    1.21    1.00
  239                  CONDUIT     0.585     0  06:00      0.75    1.88    1.00
  240                  CONDUIT     1.042     0  05:58      1.33    3.34    1.00
  241                  CONDUIT     2.102     0  05:58      2.68   38.63    1.00
  242                  CONDUIT     0.009     0  04:59      0.18    0.03    1.00
  243                  CONDUIT     0.017     0  05:08      0.17    0.05    1.00
  244                  CONDUIT     0.024     0  05:39      0.18    0.08    1.00
  245                  CONDUIT     0.029     0  05:58      0.20    0.09    1.00
  246                  CONDUIT     0.032     0  05:46      0.20    0.10    1.00
  247                  CONDUIT     0.031     0  05:53      0.19    0.10    1.00
  248                  CONDUIT     0.027     0  04:56      0.17    0.09    1.00
  249                  CONDUIT     0.022     0  05:05      0.14    0.07    1.00
  250                  CONDUIT     0.015     0  04:51      0.10    0.05    1.00
  251                  CONDUIT     0.008     0  04:48      0.06    0.03    1.00
  252                  CONDUIT     0.009     0  04:26      0.18    0.03    1.00
  253                  CONDUIT     0.018     0  04:38      0.18    0.06    1.00
  254                  CONDUIT     0.025     0  05:03      0.19    0.08    1.00
  255                  CONDUIT     0.031     0  05:14      0.20    0.10    1.00
  256                  CONDUIT     0.033     0  05:15      0.21    0.11    1.00
  257                  CONDUIT     0.033     0  04:58      0.20    0.10    1.00
  258                  CONDUIT     0.029     0  04:56      0.17    0.09    1.00
  259                  CONDUIT     0.023     0  04:52      0.15    0.08    1.00
  260                  CONDUIT     0.016     0  04:43      0.11    0.05    1.00
  261                  CONDUIT     0.008     0  04:42      0.06    0.03    1.00
  262                  CONDUIT     0.010     0  04:26      0.18    0.03    1.00
  263                  CONDUIT     0.020     0  04:38      0.19    0.07    1.00
  264                  CONDUIT     0.029     0  04:49      0.20    0.09    1.00
  265                  CONDUIT     0.035     0  05:14      0.21    0.11    1.00
  266                  CONDUIT     0.039     0  05:15      0.21    0.12    1.00
  267                  CONDUIT     0.039     0  05:07      0.20    0.12    1.00
  268                  CONDUIT     0.035     0  04:56      0.18    0.11    1.00
  269                  CONDUIT     0.028     0  04:52      0.15    0.09    1.00
  270                  CONDUIT     0.020     0  04:43      0.11    0.06    1.00
  271                  CONDUIT     0.010     0  04:43      0.06    0.03    1.00
  272                  CONDUIT     0.012     0  04:59      0.18    0.04    1.00
  273                  CONDUIT     0.024     0  05:08      0.19    0.08    1.00
  274                  CONDUIT     0.035     0  05:03      0.20    0.11    1.00
  275                  CONDUIT     0.044     0  05:14      0.21    0.14    1.00
  276                  CONDUIT     0.049     0  05:15      0.22    0.16    1.00
  277                  CONDUIT     0.051     0  05:07      0.20    0.16    1.00
  278                  CONDUIT     0.047     0  04:56      0.18    0.15    1.00
  279                  CONDUIT     0.039     0  05:05      0.15    0.12    1.00
  280                  CONDUIT     0.027     0  05:11      0.11    0.09    1.00
  281                  CONDUIT     0.014     0  04:43      0.05    0.04    1.00
  282                  CONDUIT     0.015     0  05:09      0.18    0.05    1.00
  283                  CONDUIT     0.030     0  05:36      0.18    0.10    1.00
  284                  CONDUIT     0.044     0  05:39      0.20    0.14    1.00
  285                  CONDUIT     0.056     0  05:25      0.21    0.18    1.00
  286                  CONDUIT     0.065     0  05:35      0.22    0.21    1.00
  287                  CONDUIT     0.068     0  05:21      0.20    0.22    1.00
  288                  CONDUIT     0.066     0  05:44      0.18    0.21    1.00
  289                  CONDUIT     0.056     0  05:37      0.15    0.18    1.00
  290                  CONDUIT     0.040     0  05:19      0.11    0.13    1.00
  291                  CONDUIT     0.020     0  05:29      0.05    0.07    1.00
  292                  CONDUIT     0.018     0  05:27      0.18    0.06    1.00
  293                  CONDUIT     0.036     0  05:48      0.18    0.12    1.00
  294                  CONDUIT     0.054     0  05:47      0.20    0.17    1.00
  295                  CONDUIT     0.070     0  05:25      0.21    0.22    1.00
  296                  CONDUIT     0.084     0  05:49      0.22    0.27    1.00
  297                  CONDUIT     0.092     0  05:21      0.20    0.30    1.00
  298                  CONDUIT     0.093     0  05:44      0.18    0.30    1.00
  299                  CONDUIT     0.083     0  05:37      0.15    0.27    1.00
  300                  CONDUIT     0.061     0  05:50      0.11    0.20    1.00
  301                  CONDUIT     0.032     0  05:29      0.05    0.10    1.00
  302                  CONDUIT     0.021     0  05:43      0.18    0.07    1.00
  303                  CONDUIT     0.042     0  05:36      0.18    0.13    1.00
  304                  CONDUIT     0.063     0  05:47      0.20    0.20    1.00
  305                  CONDUIT     0.084     0  05:49      0.21    0.27    1.00
  306                  CONDUIT     0.104     0  05:42      0.22    0.33    1.00
  307                  CONDUIT     0.121     0  05:53      0.20    0.39    1.00
  308                  CONDUIT     0.129     0  05:44      0.18    0.41    1.00
  309                  CONDUIT     0.123     0  05:37      0.16    0.40    1.00
  310                  CONDUIT     0.097     0  05:50      0.12    0.31    1.00
  311                  CONDUIT     0.052     0  05:29      0.07    0.17    1.00
  312                  CONDUIT     0.023     0  05:26      0.18    0.07    1.00
  313                  CONDUIT     0.046     0  05:47      0.19    0.15    1.00
  314                  CONDUIT     0.070     0  05:35      0.20    0.22    1.00
  315                  CONDUIT     0.096     0  05:33      0.22    0.31    1.00
  316                  CONDUIT     0.123     0  05:56      0.22    0.39    1.00
  317                  CONDUIT     0.150     0  05:43      0.20    0.48    1.00
  318                  CONDUIT     0.174     0  05:51      0.22    0.56    1.00
  319                  CONDUIT     0.182     0  05:59      0.23    0.59    1.00
  320                  CONDUIT     0.160     0  05:50      0.20    0.51    1.00
  321                  CONDUIT     0.094     0  05:29      0.12    0.30    1.00
  322                  CONDUIT     0.024     0  05:44      0.18    0.08    1.00
  323                  CONDUIT     0.049     0  05:34      0.19    0.16    1.00
  324                  CONDUIT     0.075     0  05:26      0.21    0.24    1.00
  325                  CONDUIT     0.104     0  05:49      0.22    0.33    1.00
  326                  CONDUIT     0.137     0  05:44      0.22    0.44    1.00
  327                  CONDUIT     0.176     0  05:56      0.22    0.56    1.00
  328                  CONDUIT     0.220     0  05:51      0.28    0.70    1.00
  329                  CONDUIT     0.260     0  05:59      0.33    0.83    1.00
  330                  CONDUIT     0.268     0  05:50      0.34    0.86    1.00
  331                  CONDUIT     0.192     0  05:55      0.24    0.61    1.00
  332                  CONDUIT     0.025     0  05:45      0.20    0.08    1.00
  333                  CONDUIT     0.050     0  05:08      0.20    0.16    1.00
  334                  CONDUIT     0.077     0  05:23      0.21    0.25    1.00
  335                  CONDUIT     0.108     0  05:29      0.22    0.35    1.00
  336                  CONDUIT     0.145     0  05:42      0.23    0.46    1.00
  337                  CONDUIT     0.191     0  05:56      0.24    0.61    1.00
  338                  CONDUIT     0.254     0  05:56      0.32    0.81    1.00
  339                  CONDUIT     0.337     0  05:56      0.43    1.08    1.00
  340                  CONDUIT     0.431     0  06:00      0.55    1.38    1.00
  341                  CONDUIT     0.440     0  05:59      0.56    1.41    1.00
  
  
  ***************************
  Flow Classification Summary
  ***************************
  
  -------------------------------------------------------------------------------------
                      Adjusted    ---------- Fraction of Time in Flow Class ---------- 
                       /Actual         Up    Down  Sub   Sup   Up    Down  Norm  Inlet 
  Conduit               Length    Dry  Dry   Dry   Crit  Crit  Crit  Crit  Ltd   Ctrl  
  -------------------------------------------------------------------------------------
  121                     1.00   0.00  0.00  0.00  1.00  0.00  0.00  0.00  0.00  0.00
  122                     1.00   0.00  0.00  0.00  1.00  0.00  0.00  0.00  0.00  0.00
  123                     1.00   0.00  0.00  0.00  1.00  0.00  0.00  0.00  0.00  0.00
  124                     1.00   0.00  0.00  0.00  1.00  0.00  0.00  0.00  0.00  0.00
  125                     1.00   0.00  0.00  0.00  1.00  0.00  0.00  0.00  0.00  0.00
  126                     1.00   0.00  0.00  0.00  1.00  0.00  0.00  0.00  0.00  0.00
  127                     1.00   0.00  0.00  0.00  1.00  0.00  0.00  0.00  0.00  0.00
  128                     1.00   0.00  0.00  0.00  1.00  0.00  0.00  0.00  0.00  0.00
  129                     1.00   0.00  0.00  0.00  1.00  0.00  0.00  0.00  0.00  0.00
  130                     1.00   0.00  0.00  0.00  1.00  0.00  0.00  0.00  0.00  0.00
  131                     1.00   0.00  0.00  0.00  1.00  0.00  0.00  0.00  0.00  0.00
  132                     1.00   0.00  0.00  0.00  1.00  0.00  0.00  0.00  0.00  0.00
  133                     1.00   0.00  0.00  0.00  1.00  0.00  0.00  0.00  0.00  0.00
  134                     1.00   0.00  0.00  0.00  1.00  0.00  0.00  0.00  0.00  0.00
  135                     1.00   0.00  0.00  0.00  1.00  0.00  0.00  0.00  0.00  0.00
  136                     1.00   0.00  0.00  0.00  1.00  0.00  0.00  0.00  0.00  0.00
  137                     1.00   0.00  0.00  0.00  1.00  0.00  0.00  0.00  0.00  0.00
  138                     1.00   0.00  0.00  0.00  1.00  0.00  0.00  0.00  0.00  0.00
  139                     1.00   0.00  0.00  0.00  1.00  0.00  0.00  0.00  0.00  0.00
  140                     1.00   0.00  0.00  0.00  1.00  0.00  0.00  0.00  0.00  0.00
  141                     1.00   0.00  0.00  0.00  1.00  0.00  0.00  0.00  0.00  0.00
  142                     1.00   0.00  0.00  0.00  1.00  0.00  0.00  0.00  0.00  0.00
  143                     1.00   0.00  0.00  0.00  1.00  0.00  0.00  0.00  0.00  0.00
  144                     1.00   0.00  0.00  0.00  1.00  0.00  0.00  0.00  0.00  0.00
  145                     1.00   0.00  0.00  0.00  1.00  0.00  0.00  0.00  0.00  0.00
  146                     1.00   0.00  0.00  0.00  1.00  0.00  0.00  0.00  0.00  0.00
  147                     1.00   0.00  0.00  0.00  1.00  0.00  0.00  0.00  0.00  0.00
  148                     1.00   0.00  0.00  0.00  1.00  0.00  0.00  0.00  0.00  0.00
  149                     1.00   0.00  0.00  0.00  1.00  0.00  0.00  0.00  0.00  0.00
  150                     1.00   0.00  0.00  0.00  1.00  0.00  0.00  0.00  0.00  0.00
  151                     1.00   0.00  0.00  0.00  1.00  0.00  0.00  0.00  0.00  0.00
  152                     1.00   0.00  0.00  0.00  1.00  0.00  0.00  0.00  0.00  0.00
  153                     1.00   0.00  0.00  0.00  1.00  0.00  0.00  0.00  0.00  0.00
  154                     1.00   0.00  0.00  0.00  1.00  0.00  0.00  0.00  0.00  0.00
  155                     1.00   0.00  0.00  0.00  1.00  0.00  0.00  0.00  0.00  0.00
  156                     1.00   0.00  0.00  0.00  1.00  0.00  0.00  0.00  0.00  0.00
  157                     1.00   0.00  0.00  0.00  1.00  0.00  0.00  0.00  0.00  0.00
  158                     1.00   0.00  0.00  0.00  1.00  0.00  0.00  0.00  0.00  0.00
  159                     1.00   0.00  0.00  0.00  1.00  0.00  0.00  0.00  0.00  0.00
  160                     1.00   0.00  0.00  0.00  1.00  0.00  0.00  0.00  0.00  0.00
  161                     1.00   0.00  0.00  0.00  1.00  0.00  0.00  0.00  0.00  0.00
  162                     1.00   0.00  0.00  0.00  1.00  0.00  0.00  0.00  0.00  0.00
  163                     1.00   0.00  0.00  0.00  1.00  0.00  0.00  0.00  0.00  0.00
  164                     1.00   0.00  0.00  0.00  1.00  0.00  0.00  0.00  0.00  0.00
  165                     1.00   0.00  0.00  0.00  1.00  0.00  0.00  0.00  0.00  0.00
  166                     1.00   0.00  0.00  0.00  1.00  0.00  0.00  0.00  0.00  0.00
  167                     1.00   0.00  0.00  0.00  1.00  0.00  0.00  0.00  0.00  0.00
  168                     1.00   0.00  0.00  0.00  1.00  0.00  0.00  0.00  0.00  0.00
  169                     1.00   0.00  0.00  0.00  1.00  0.00  0.00  0.00  0.00  0.00
  170                     1.00   0.00  0.00  0.00  1.00  0.00  0.00  0.00  0.00  0.00
  171                     1.00   0.00  0.00  0.00  1.00  0.00  0.00  0.00  0.00  0.00
  172                     1.00   0.00  0.00  0.00  1.00  0.00  0.00  0.00  0.00  0.00
  173                     1.00   0.00  0.00  0.00  1.00  0.00  0.00  0.00  0.00  0.00
  174                     1.00   0.00  0.00  0.00  1.00  0.00  0.00  0.00  0.00  0.00
  175                     1.00   0.00  0.00  0.00  1.00  0.00  0.00  0.00  0.00  0.00
  176                     1.00   0.00  0.00  0.00  1.00  0.00  0.00  0.00  0.00  0.00
  177                     1.00   0.00  0.00  0.00  1.00  0.00  0.00  0.00  0.00  0.00
  178                     1.00   0.00  0.00  0.00  1.00  0.00  0.00  0.00  0.00  0.00
  179                     1.00   0.00  0.00  0.00  1.00  0.00  0.00  0.00  0.00  0.00
  180                     1.00   0.00  0.00  0.00  1.00  0.00  0.00  0.00  0.00  0.00
  181                     1.00   0.00  0.00  0.00  1.00  0.00  0.00  0.00  0.00  0.00
  182                     1.00   0.00  0.00  0.00  1.00  0.00  0.00  0.00  0.00  0.00
  183                     1.00   0.00  0.00  0.00  1.00  0.00  0.00  0.00  0.00  0.00
  184                     1.00   0.00  0.00  0.00  1.00  0.00  0.00  0.00  0.00  0.00
  185                     1.00   0.00  0.00  0.00  1.00  0.00  0.00  0.00  0.00  0.00
  186                     1.00   0.00  0.00  0.00  1.00  0.00  0.00  0.00  0.00  0.00
  187                     1.00   0.00  0.00  0.00  1.00  0.00  0.00  0.00  0.00  0.00
  188                     1.00   0.00  0.00  0.00  1.00  0.00  0.00  0.00  0.00  0.00
  189                     1.00   0.00  0.00  0.00  1.00  0.00  0.00  0.00  0.00  0.00
  190                     1.00   0.00  0.00  0.00  1.00  0.00  0.00  0.00  0.00  0.00
  191                     1.00   0.00  0.00  0.00  1.00  0.00  0.00  0.00  0.00  0.00
  192                     1.00   0.00  0.00  0.00  1.00  0.00  0.00  0.00  0.00  0.00
  193                     1.00   0.00  0.00  0.00  1.00  0.00  0.00  0.00  0.00  0.00
  194                     1.00   0.00  0.00  0.00  1.00  0.00  0.00  0.00  0.00  0.00
  195                     1.00   0.00  0.00  0.00  1.00  0.00  0.00  0.00  0.00  0.00
  196                     1.00   0.00  0.00  0.00  1.00  0.00  0.00  0.00  0.00  0.00
  197                     1.00   0.00  0.00  0.00  1.00  0.00  0.00  0.00  0.00  0.00
  198                     1.00   0.00  0.00  0.00  1.00  0.00  0.00  0.00  0.00  0.00
  199                     1.00   0.00  0.00  0.00  1.00  0.00  0.00  0.00  0.00  0.00
  200                     1.00   0.00  0.00  0.00  1.00  0.00  0.00  0.00  0.00  0.00
  201                     1.00   0.00  0.00  0.00  1.00  0.00  0.00  0.00  0.00  0.00
  202                     1.00   0.00  0.00  0.00  1.00  0.00  0.00  0.00  0.00  0.00
  203                     1.00   0.00  0.00  0.00  1.00  0.00  0.00  0.00  0.00  0.00
  204                     1.00   0.00  0.00  0.00  1.00  0.00  0.00  0.00  0.00  0.00
  205                     1.00   0.00  0.00  0.00  1.00  0.00  0.00  0.00  0.00  0.00
  206                     1.00   0.00  0.00  0.00  1.00  0.00  0.00  0.00  0.00  0.00
  207                     1.00   0.00  0.00  0.00  1.00  0.00  0.00  0.00  0.00  0.00
  208                     1.00   0.00  0.00  0.00  1.00  0.00  0.00  0.00  0.00  0.00
  209                     1.00   0.00  0.00  0.00  1.00  0.00  0.00  0.00  0.00  0.00
  210                     1.00   0.00  0.00  0.00  1.00  0.00  0.00  0.00  0.00  0.00
  211                     1.00   0.00  0.00  0.00  1.00  0.00  0.00  0.00  0.00  0.00
  212                     1.00   0.00  0.00  0.00  1.00  0.00  0.00  0.00  0.00  0.00
  213                     1.00   0.00  0.00  0.00  1.00  0.00  0.00  0.00  0.00  0.00
  214                     1.00   0.00  0.00  0.00  1.00  0.00  0.00  0.00  0.00  0.00
  215                     1.00   0.00  0.00  0.00  1.00  0.00  0.00  0.00  0.00  0.00
  216                     1.00   0.00  0.00  0.00  1.00  0.00  0.00  0.00  0.00  0.00
  217                     1.00   0.00  0.00  0.00  1.00  0.00  0.00  0.00  0.00  0.00
  218                     1.00   0.00  0.00  0.00  1.00  0.00  0.00  0.00  0.00  0.00
  219                     1.00   0.00  0.00  0.00  1.00  0.00  0.00  0.00  0.00  0.00
  220                     1.00   0.00  0.00  0.00  1.00  0.00  0.00  0.00  0.00  0.00
  221                     1.00   0.00  0.00  0.00  1.00  0.00  0.00  0.00  0.00  0.00
  222                     1.00   0.00  0.00  0.00  1.00  0.00  0.00  0.00  0.00  0.00
  223                     1.00   0.00  0.00  0.00  1.00  0.00  0.00  0.00  0.00  0.00
  224                     1.00   0.00  0.00  0.00  1.00  0.00  0.00  0.00  0.00  0.00
  225                     1.00   0.00  0.00  0.00  1.00  0.00  0.00  0.00  0.00  0.00
  226                     1.00   0.00  0.00  0.00  1.00  0.00  0.00  0.00  0.00  0.00
  227                     1.00   0.00  0.00  0.00  1.00  0.00  0.00  0.00  0.00  0.00
  228                     1.00   0.00  0.00  0.00  1.00  0.00  0.00  0.00  0.00  0.00
  229                     1.00   0.00  0.00  0.00  1.00  0.00  0.00  0.00  0.00  0.00
  230                     1.00   0.00  0.00  0.00  1.00  0.00  0.00  0.00  0.00  0.00
  231                     1.00   0.00  0.00  0.00  1.00  0.00  0.00  0.00  0.00  0.00
  232                     1.00   0.00  0.00  0.00  1.00  0.00  0.00  0.00  0.00  0.00
  233                     1.00   0.00  0.00  0.00  1.00  0.00  0.00  0.00  0.00  0.00
  234                     1.00   0.00  0.00  0.00  1.00  0.00  0.00  0.00  0.00  0.00
  235                     1.00   0.00  0.00  0.00  1.00  0.00  0.00  0.00  0.00  0.00
  236                     1.00   0.00  0.00  0.00  1.00  0.00  0.00  0.00  0.00  0.00
  237                     1.00   0.00  0.00  0.00  1.00  0.00  0.00  0.00  0.00  0.00
  238                     1.00   0.00  0.00  0.00  1.00  0.00  0.00  0.00  0.00  0.00
  239                     1.00   0.00  0.00  0.00  1.00  0.00  0.00  0.00  0.00  0.00
  240                     1.00   0.00  0.00  0.00  1.00  0.00  0.00  0.00  0.00  0.00
  241                     1.00   0.00  0.00  0.00  1.00  0.00  0.00  0.00  0.00  0.00
  242                     1.00   0.00  0.00  0.00  1.00  0.00  0.00  0.00  0.00  0.00
  243                     1.00   0.00  0.00  0.00  1.00  0.00  0.00  0.00  0.00  0.00
  244                     1.00   0.00  0.00  0.00  1.00  0.00  0.00  0.00  0.00  0.00
  245                     1.00   0.00  0.00  0.00  1.00  0.00  0.00  0.00  0.00  0.00
  246                     1.00   0.00  0.00  0.00  1.00  0.00  0.00  0.00  0.00  0.00
  247                     1.00   0.00  0.00  0.00  1.00  0.00  0.00  0.00  0.00  0.00
  248                     1.00   0.00  0.00  0.00  1.00  0.00  0.00  0.00  0.00  0.00
  249                     1.00   0.00  0.00  0.00  1.00  0.00  0.00  0.00  0.00  0.00
  250                     1.00   0.00  0.00  0.00  1.00  0.00  0.00  0.00  0.00  0.00
  251                     1.00   0.00  0.00  0.00  1.00  0.00  0.00  0.00  0.00  0.00
  252                     1.00   0.00  0.00  0.00  1.00  0.00  0.00  0.00  0.00  0.00
  253                     1.00   0.00  0.00  0.00  1.00  0.00  0.00  0.00  0.00  0.00
  254                     1.00   0.00  0.00  0.00  1.00  0.00  0.00  0.00  0.00  0.00
  255                     1.00   0.00  0.00  0.00  1.00  0.00  0.00  0.00  0.00  0.00
  256                     1.00   0.00  0.00  0.00  1.00  0.00  0.00  0.00  0.00  0.00
  257                     1.00   0.00  0.00  0.00  1.00  0.00  0.00  0.00  0.00  0.00
  258                     1.00   0.00  0.00  0.00  1.00  0.00  0.00  0.00  0.00  0.00
  259                     1.00   0.00  0.00  0.00  1.00  0.00  0.00  0.00  0.00  0.00
  260                     1.00   0.00  0.00  0.00  1.00  0.00  0.00  0.00  0.00  0.00
  261                     1.00   0.00  0.00  0.00  1.00  0.00  0.00  0.00  0.00  0.00
  262                     1.00   0.00  0.00  0.00  1.00  0.00  0.00  0.00  0.00  0.00
  263                     1.00   0.00  0.00  0.00  1.00  0.00  0.00  0.00  0.00  0.00
  264                     1.00   0.00  0.00  0.00  1.00  0.00  0.00  0.00  0.00  0.00
  265                     1.00   0.00  0.00  0.00  1.00  0.00  0.00  0.00  0.00  0.00
  266                     1.00   0.00  0.00  0.00  1.00  0.00  0.00  0.00  0.00  0.00
  267                     1.00   0.00  0.00  0.00  1.00  0.00  0.00  0.00  0.00  0.00
  268                     1.00   0.00  0.00  0.00  1.00  0.00  0.00  0.00  0.00  0.00
  269                     1.00   0.00  0.00  0.00  1.00  0.00  0.00  0.00  0.00  0.00
  270                     1.00   0.00  0.00  0.00  1.00  0.00  0.00  0.00  0.00  0.00
  271                     1.00   0.00  0.00  0.00  1.00  0.00  0.00  0.00  0.00  0.00
  272                     1.00   0.00  0.00  0.00  1.00  0.00  0.00  0.00  0.00  0.00
  273                     1.00   0.00  0.00  0.00  1.00  0.00  0.00  0.00  0.00  0.00
  274                     1.00   0.00  0.00  0.00  1.00  0.00  0.00  0.00  0.00  0.00
  275                     1.00   0.00  0.00  0.00  1.00  0.00  0.00  0.00  0.00  0.00
  276                     1.00   0.00  0.00  0.00  1.00  0.00  0.00  0.00  0.00  0.00
  277                     1.00   0.00  0.00  0.00  1.00  0.00  0.00  0.00  0.00  0.00
  278                     1.00   0.00  0.00  0.00  1.00  0.00  0.00  0.00  0.00  0.00
  279                     1.00   0.00  0.00  0.00  1.00  0.00  0.00  0.00  0.00  0.00
  280                     1.00   0.00  0.00  0.00  1.00  0.00  0.00  0.00  0.00  0.00
  281                     1.00   0.00  0.00  0.00  1.00  0.00  0.00  0.00  0.00  0.00
  282                     1.00   0.00  0.00  0.00  1.00  0.00  0.00  0.00  0.00  0.00
  283                     1.00   0.00  0.00  0.00  1.00  0.00  0.00  0.00  0.00  0.00
  284                     1.00   0.00  0.00  0.00  1.00  0.00  0.00  0.00  0.00  0.00
  285                     1.00   0.00  0.00  0.00  1.00  0.00  0.00  0.00  0.00  0.00
  286                     1.00   0.00  0.00  0.00  1.00  0.00  0.00  0.00  0.00  0.00
  287                     1.00   0.00  0.00  0.00  1.00  0.00  0.00  0.00  0.00  0.00
  288                     1.00   0.00  0.00  0.00  1.00  0.00  0.00  0.00  0.00  0.00
  289                     1.00   0.00  0.00  0.00  1.00  0.00  0.00  0.00  0.00  0.00
  290                     1.00   0.00  0.00  0.00  1.00  0.00  0.00  0.00  0.00  0.00
  291                     1.00   0.00  0.00  0.00  1.00  0.00  0.00  0.00  0.00  0.00
  292                     1.00   0.00  0.00  0.00  1.00  0.00  0.00  0.00  0.00  0.00
  293                     1.00   0.00  0.00  0.00  1.00  0.00  0.00  0.00  0.00  0.00
  294                     1.00   0.00  0.00  0.00  1.00  0.00  0.00  0.00  0.00  0.00
  295                     1.00   0.00  0.00  0.00  1.00  0.00  0.00  0.00  0.00  0.00
  296                     1.00   0.00  0.00  0.00  1.00  0.00  0.00  0.00  0.00  0.00
  297                     1.00   0.00  0.00  0.00  1.00  0.00  0.00  0.00  0.00  0.00
  298                     1.00   0.00  0.00  0.00  1.00  0.00  0.00  0.00  0.00  0.00
  299                     1.00   0.00  0.00  0.00  1.00  0.00  0.00  0.00  0.00  0.00
  300                     1.00   0.00  0.00  0.00  1.00  0.00  0.00  0.00  0.00  0.00
  301                     1.00   0.00  0.00  0.00  1.00  0.00  0.00  0.00  0.00  0.00
  302                     1.00   0.00  0.00  0.00  1.00  0.00  0.00  0.00  0.00  0.00
  303                     1.00   0.00  0.00  0.00  1.00  0.00  0.00  0.00  0.00  0.00
  304                     1.00   0.00  0.00  0.00  1.00  0.00  0.00  0.00  0.00  0.00
  305                     1.00   0.00  0.00  0.00  1.00  0.00  0.00  0.00  0.00  0.00
  306                     1.00   0.00  0.00  0.00  1.00  0.00  0.00  0.00  0.00  0.00
  307                     1.00   0.00  0.00  0.00  1.00  0.00  0.00  0.00  0.00  0.00
  308                     1.00   0.00  0.00  0.00  1.00  0.00  0.00  0.00  0.00  0.00
  309                     1.00   0.00  0.00  0.00  1.00  0.00  0.00  0.00  0.00  0.00
  310                     1.00   0.00  0.00  0.00  1.00  0.00  0.00  0.00  0.00  0.00
  311                     1.00   0.00  0.00  0.00  1.00  0.00  0.00  0.00  0.00  0.00
  312                     1.00   0.00  0.00  0.00  1.00  0.00  0.00  0.00  0.00  0.00
  313                     1.00   0.00  0.00  0.00  1.00  0.00  0.00  0.00  0.00  0.00
  314                     1.00   0.00  0.00  0.00  1.00  0.00  0.00  0.00  0.00  0.00
  315                     1.00   0.00  0.00  0.00  1.00  0.00  0.00  0.00  0.00  0.00
  316                     1.00   0.00  0.00  0.00  1.00  0.00  0.00  0.00  0.00  0.00
  317                     1.00   0.00  0.00  0.00  1.00  0.00  0.00  0.00  0.00  0.00
  318                     1.00   0.00  0.00  0.00  1.00  0.00  0.00  0.00  0.00  0.00
  319                     1.00   0.00  0.00  0.00  1.00  0.00  0.00  0.00  0.00  0.00
  320                     1.00   0.00  0.00  0.00  1.00  0.00  0.00  0.00  0.00  0.00
  321                     1.00   0.00  0.00  0.00  1.00  0.00  0.00  0.00  0.00  0.00
  322                     1.00   0.00  0.00  0.00  1.00  0.00  0.00  0.00  0.00  0.00
  323                     1.00   0.00  0.00  0.00  1.00  0.00  0.00  0.00  0.00  0.00
  324                     1.00   0.00  0.00  0.00  1.00  0.00  0.00  0.00  0.00  0.00
  325                     1.00   0.00  0.00  0.00  1.00  0.00  0.00  0.00  0.00  0.00
  326                     1.00   0.00  0.00  0.00  1.00  0.00  0.00  0.00  0.00  0.00
  327                     1.00   0.00  0.00  0.00  1.00  0.00  0.00  0.00  0.00  0.00
  328                     1.00   0.00  0.00  0.00  1.00  0.00  0.00  0.00  0.00  0.00
  329                     1.00   0.00  0.00  0.00  1.00  0.00  0.00  0.00  0.00  0.00
  330                     1.00   0.00  0.00  0.00  1.00  0.00  0.00  0.00  0.00  0.00
  331                     1.00   0.00  0.00  0.00  1.00  0.00  0.00  0.00  0.00  0.00
  332                     1.00   0.00  0.00  0.00  1.00  0.00  0.00  0.00  0.00  0.00
  333                     1.00   0.00  0.00  0.00  1.00  0.00  0.00  0.00  0.00  0.00
  334                     1.00   0.00  0.00  0.00  1.00  0.00  0.00  0.00  0.00  0.00
  335                     1.00   0.00  0.00  0.00  1.00  0.00  0.00  0.00  0.00  0.00
  336                     1.00   0.00  0.00  0.00  1.00  0.00  0.00  0.00  0.00  0.00
  337                     1.00   0.00  0.00  0.00  1.00  0.00  0.00  0.00  0.00  0.00
  338                     1.00   0.00  0.00  0.00  1.00  0.00  0.00  0.00  0.00  0.00
  339                     1.00   0.00  0.00  0.00  1.00  0.00  0.00  0.00  0.00  0.00
  340                     1.00   0.00  0.00  0.00  1.00  0.00  0.00  0.00  0.00  0.00
  341                     1.00   0.00  0.00  0.00  1.00  0.00  0.00  0.00  0.00  0.00
  
  
  *************************
  Conduit Surcharge Summary
  *************************
  
  ----------------------------------------------------------------------------
                                                           Hours        Hours 
                         --------- Hours Full --------   Above Full   Capacity
  Conduit                Both Ends  Upstream  Dnstream   Normal Flow   Limited
  ----------------------------------------------------------------------------
  121                         2.41      2.41      2.43      0.01         0.01
  122                         2.43      2.43      2.45      0.01         0.01
  123                         2.45      2.45      2.47      0.01         0.01
  124                         2.47      2.47      2.49      0.01         0.01
  125                         2.49      2.49      2.51      0.01         0.01
  126                         2.51      2.51      2.53      0.01         0.01
  127                         2.53      2.53      2.55      0.01         0.01
  128                         2.55      2.55      2.57      0.01         0.01
  129                         2.57      2.57      2.59      0.01         0.01
  130                         2.59      2.59      2.61      0.01         0.01
  131                         2.43      2.43      2.45      0.01         0.01
  132                         2.45      2.45      2.47      0.01         0.01
  133                         2.47      2.47      2.49      0.01         0.01
  134                         2.49      2.49      2.51      0.01         0.01
  135                         2.51      2.51      2.53      0.01         0.01
  136                         2.53      2.53      2.55      0.01         0.01
  137                         2.55      2.55      2.57      0.01         0.01
  138                         2.57      2.57      2.59      0.01         0.01
  139                         2.59      2.59      2.61      0.01         0.01
  140                         2.61      2.61      2.64      0.01         0.01
  141                         2.45      2.45      2.47      0.01         0.01
  142                         2.47      2.47      2.49      0.01         0.01
  143                         2.49      2.49      2.51      0.01         0.01
  144                         2.51      2.51      2.53      0.01         0.01
  145                         2.53      2.53      2.55      0.01         0.01
  146                         2.55      2.55      2.57      0.01         0.01
  147                         2.57      2.57      2.59      0.01         0.01
  148                         2.59      2.59      2.61      0.01         0.01
  149                         2.61      2.61      2.64      0.01         0.01
  150                         2.64      2.64      2.66      0.01         0.01
  151                         2.47      2.47      2.49      0.01         0.01
  152                         2.49      2.49      2.51      0.01         0.01
  153                         2.51      2.51      2.53      0.01         0.01
  154                         2.53      2.53      2.55      0.01         0.01
  155                         2.55      2.55      2.57      0.01         0.01
  156                         2.57      2.57      2.59      0.01         0.01
  157                         2.59      2.59      2.61      0.01         0.01
  158                         2.61      2.61      2.64      0.01         0.01
  159                         2.64      2.64      2.66      0.01         0.01
  160                         2.66      2.66      2.69      0.01         0.01
  161                         2.49      2.49      2.51      0.01         0.01
  162                         2.51      2.51      2.53      0.01         0.01
  163                         2.53      2.53      2.55      0.01         0.01
  164                         2.55      2.55      2.57      0.01         0.01
  165                         2.57      2.57      2.59      0.01         0.01
  166                         2.59      2.59      2.61      0.01         0.01
  167                         2.61      2.61      2.64      0.01         0.01
  168                         2.64      2.64      2.66      0.01         0.01
  169                         2.66      2.66      2.69      0.01         0.01
  170                         2.69      2.69      2.72      0.01         0.01
  171                         2.51      2.51      2.53      0.01         0.01
  172                         2.53      2.53      2.55      0.01         0.01
  173                         2.55      2.55      2.57      0.01         0.01
  174                         2.57      2.57      2.59      0.01         0.01
  175                         2.59      2.59      2.61      0.01         0.01
  176                         2.61      2.61      2.63      0.01         0.01
  177                         2.63      2.63      2.66      0.01         0.01
  178                         2.66      2.66      2.69      0.01         0.01
  179                         2.69      2.69      2.72      0.01         0.01
  180                         2.72      2.72      2.75      0.01         0.01
  181                         2.53      2.53      2.55      0.01         0.01
  182                         2.55      2.55      2.57      0.01         0.01
  183                         2.57      2.57      2.59      0.01         0.01
  184                         2.59      2.59      2.61      0.01         0.01
  185                         2.61      2.61      2.63      0.01         0.01
  186                         2.63      2.63      2.66      0.01         0.01
  187                         2.66      2.66      2.69      0.01         0.01
  188                         2.69      2.69      2.72      0.01         0.01
  189                         2.72      2.72      2.75      0.01         0.01
  190                         2.75      2.75      2.78      0.01         0.01
  191                         2.55      2.55      2.57      0.01         0.01
  192                         2.57      2.57      2.59      0.01         0.01
  193                         2.59      2.59      2.61      0.01         0.01
  194                         2.61      2.61      2.64      0.01         0.01
  195                         2.64      2.64      2.66      0.01         0.01
  196                         2.66      2.66      2.69      0.01         0.01
  197                         2.69      2.69      2.71      0.01         0.01
  198                         2.71      2.71      2.74      0.01         0.01
  199                         2.74      2.74      2.78      0.01         0.01
  200                         2.78      2.78      2.81      0.01         0.01
  201                         2.57      2.57      2.59      0.01         0.01
  202                         2.59      2.59      2.61      0.01         0.01
  203                         2.61      2.61      2.64      0.01         0.01
  204                         2.64      2.64      2.66      0.01         0.01
  205                         2.66      2.66      2.69      0.01         0.01
  206                         2.69      2.69      2.72      0.01         0.01
  207                         2.72      2.72      2.74      0.01         0.01
  208                         2.74      2.74      2.77      0.01         0.01
  209                         2.77      2.77      2.80      0.01         0.01
  210                         2.80      2.80      2.83      0.01         0.01
  211                         2.59      2.59      2.61      0.01         0.01
  212                         2.61      2.61      2.64      0.01         0.01
  213                         2.64      2.64      2.66      0.01         0.01
  214                         2.66      2.66      2.69      0.01         0.01
  215                         2.69      2.69      2.72      0.01         0.01
  216                         2.72      2.72      2.75      0.01         0.01
  217                         2.75      2.75      2.78      0.01         0.01
  218                         2.78      2.78      2.80      1.87         1.81
  219                         2.80      2.80      2.80      2.50         2.54
  220                         2.80      2.80      2.81      2.54         2.56
  221                         2.61      2.61      2.64      0.01         0.01
  222                         2.64      2.64      2.66      0.01         0.01
  223                         2.66      2.66      2.69      0.01         0.01
  224                         2.69      2.69      2.72      0.01         0.01
  225                         2.72      2.72      2.75      0.01         0.01
  226                         2.75      2.75      2.78      0.01         0.01
  227                         2.78      2.78      2.81      0.01         0.01
  228                         2.81      2.81      2.83      2.28         2.26
  229                         2.81      2.83      2.81      3.31         2.82
  230                         2.66      2.81      2.66      4.44         2.74
  231                         2.61      2.61      2.64      0.01         0.01
  232                         2.64      2.64      2.66      0.01         0.01
  233                         2.66      2.66      2.69      0.01         0.01
  234                         2.69      2.69      2.72      0.01         0.01
  235                         2.72      2.72      2.75      0.01         0.01
  236                         2.75      2.75      2.78      0.01         0.01
  237                         2.78      2.78      2.81      0.01         0.01
  238                         2.81      2.81      2.83      2.28         2.26
  239                         2.81      2.83      2.81      3.31         2.82
  240                         2.66      2.81      2.66      4.44         2.74
  241                         0.01      2.66      0.01      5.72         2.08
  242                         2.41      2.41      2.43      0.01         0.01
  243                         2.43      2.43      2.45      0.01         0.01
  244                         2.45      2.45      2.47      0.01         0.01
  245                         2.47      2.47      2.49      0.01         0.01
  246                         2.49      2.49      2.51      0.01         0.01
  247                         2.51      2.51      2.53      0.01         0.01
  248                         2.53      2.53      2.55      0.01         0.01
  249                         2.55      2.55      2.57      0.01         0.01
  250                         2.57      2.57      2.59      0.01         0.01
  251                         2.59      2.59      2.61      0.01         0.01
  252                         2.43      2.43      2.45      0.01         0.01
  253                         2.45      2.45      2.47      0.01         0.01
  254                         2.47      2.47      2.49      0.01         0.01
  255                         2.49      2.49      2.51      0.01         0.01
  256                         2.51      2.51      2.53      0.01         0.01
  257                         2.53      2.53      2.55      0.01         0.01
  258                         2.55      2.55      2.57      0.01         0.01
  259                         2.57      2.57      2.59      0.01         0.01
  260                         2.59      2.59      2.61      0.01         0.01
  261                         2.61      2.61      2.64      0.01         0.01
  262                         2.45      2.45      2.47      0.01         0.01
  263                         2.47      2.47      2.49      0.01         0.01
  264                         2.49      2.49      2.51      0.01         0.01
  265                         2.51      2.51      2.53      0.01         0.01
  266                         2.53      2.53      2.55      0.01         0.01
  267                         2.55      2.55      2.57      0.01         0.01
  268                         2.57      2.57      2.59      0.01         0.01
  269                         2.59      2.59      2.61      0.01         0.01
  270                         2.61      2.61      2.64      0.01         0.01
  271                         2.64      2.64      2.66      0.01         0.01
  272                         2.47      2.47      2.49      0.01         0.01
  273                         2.49      2.49      2.51      0.01         0.01
  274                         2.51      2.51      2.53      0.01         0.01
  275                         2.53      2.53      2.55      0.01         0.01
  276                         2.55      2.55      2.57      0.01         0.01
  277                         2.57      2.57      2.59      0.01         0.01
  278                         2.59      2.59      2.61      0.01         0.01
  279                         2.61      2.61      2.64      0.01         0.01
  280                         2.64      2.64      2.66      0.01         0.01
  281                         2.66      2.66      2.69      0.01         0.01
  282                         2.49      2.49      2.51      0.01         0.01
  283                         2.51      2.51      2.53      0.01         0.01
  284                         2.53      2.53      2.55      0.01         0.01
  285                         2.55      2.55      2.57      0.01         0.01
  286                         2.57      2.57      2.59      0.01         0.01
  287                         2.59      2.59      2.61      0.01         0.01
  288                         2.61      2.61      2.64      0.01         0.01
  289                         2.64      2.64      2.66      0.01         0.01
  290                         2.66      2.66      2.69      0.01         0.01
  291                         2.69      2.69      2.72      0.01         0.01
  292                         2.51      2.51      2.53      0.01         0.01
  293                         2.53      2.53      2.55      0.01         0.01
  294                         2.55      2.55      2.57      0.01         0.01
  295                         2.57      2.57      2.59      0.01         0.01
  296                         2.59      2.59      2.61      0.01         0.01
  297                         2.61      2.61      2.63      0.01         0.01
  298                         2.63      2.63      2.66      0.01         0.01
  299                         2.66      2.66      2.69      0.01         0.01
  300                         2.69      2.69      2.72      0.01         0.01
  301                         2.72      2.72      2.75      0.01         0.01
  302                         2.53      2.53      2.55      0.01         0.01
  303                         2.55      2.55      2.57      0.01         0.01
  304                         2.57      2.57      2.59      0.01         0.01
  305                         2.59      2.59      2.61      0.01         0.01
  306                         2.61      2.61      2.63      0.01         0.01
  307                         2.63      2.63      2.66      0.01         0.01
  308                         2.66      2.66      2.69      0.01         0.01
  309                         2.69      2.69      2.72      0.01         0.01
  310                         2.72      2.72      2.75      0.01         0.01
  311                         2.75      2.75      2.78      0.01         0.01
  312                         2.55      2.55      2.57      0.01         0.01
  313                         2.57      2.57      2.59      0.01         0.01
  314                         2.59      2.59      2.61      0.01         0.01
  315                         2.61      2.61      2.64      0.01         0.01
  316                         2.64      2.64      2.66      0.01         0.01
  317                         2.66      2.66      2.69      0.01         0.01
  318                         2.69      2.69      2.71      0.01         0.01
  319                         2.71      2.71      2.74      0.01         0.01
  320                         2.74      2.74      2.78      0.01         0.01
  321                         2.78      2.78      2.81      0.01         0.01
  322                         2.57      2.57      2.59      0.01         0.01
  323                         2.59      2.59      2.61      0.01         0.01
  324                         2.61      2.61      2.64      0.01         0.01
  325                         2.64      2.64      2.66      0.01         0.01
  326                         2.66      2.66      2.69      0.01         0.01
  327                         2.69      2.69      2.72      0.01         0.01
  328                         2.72      2.72      2.74      0.01         0.01
  329                         2.74      2.74      2.77      0.01         0.01
  330                         2.77      2.77      2.80      0.01         0.01
  331                         2.80      2.80      2.83      0.01         0.01
  332                         2.59      2.59      2.61      0.01         0.01
  333                         2.61      2.61      2.64      0.01         0.01
  334                         2.64      2.64      2.66      0.01         0.01
  335                         2.66      2.66      2.69      0.01         0.01
  336                         2.69      2.69      2.72      0.01         0.01
  337                         2.72      2.72      2.75      0.01         0.01
  338                         2.75      2.75      2.78      0.01         0.01
  339                         2.78      2.78      2.80      1.87         1.81
  340                         2.80      2.80      2.80      2.50         2.54
  341                         2.80      2.80      2.81      2.54         2.56
  

  Analysis begun on:  Mon Nov 28 17:42:41 2022
  Analysis ended on:  Mon Nov 28 17:42:43 2022
  Total elapsed time: 00:00:02