
  EPA STORM WATER MANAGEMENT MODEL - VERSION 5.1 (Build 5.1.015)
  --------------------------------------------------------------

  WARNING 04: minimum elevation drop used for Conduit 241
  
  *********************************************************
  NOTE: The summary statistics displayed in this report are
  based on results found at every computational time step,  
  not just on results from each reporting time step.
  *********************************************************
  
  ****************
  Analysis Options
  ****************
  Flow Units ............... CMS
  Process Models:
    Rainfall/Runoff ........ NO
    RDII ................... NO
    Snowmelt ............... NO
    Groundwater ............ NO
    Flow Routing ........... YES
    Ponding Allowed ........ NO
    Water Quality .......... NO
  Flow Routing Method ...... DYNWAVE
  Surcharge Method ......... SLOT
  Starting Date ............ 10/31/2022 00:00:00
  Ending Date .............. 10/31/2022 06:00:00
  Antecedent Dry Days ...... 0.0
  Report Time Step ......... 00:00:10
  Routing Time Step ........ 1.00 sec
  Variable Time Step ....... NO
  Maximum Trials ........... 8
  Number of Threads ........ 6
  Head Tolerance ........... 0.001500 m
  
  
  **************************        Volume        Volume
  Flow Routing Continuity        hectare-m      10^6 ltr
  **************************     ---------     ---------
  Dry Weather Inflow .......         0.000         0.000
  Wet Weather Inflow .......         0.000         0.000
  Groundwater Inflow .......         0.000         0.000
  RDII Inflow ..............         0.000         0.000
  External Inflow ..........         4.541        45.406
  External Outflow .........         2.667        26.674
  Flooding Loss ............         0.000         0.000
  Evaporation Loss .........         0.000         0.000
  Exfiltration Loss ........         0.000         0.000
  Initial Stored Volume ....         0.000         0.000
  Final Stored Volume ......         1.765        17.649
  Continuity Error (%) .....         2.384
  
  
  *************************
  Highest Continuity Errors
  *************************
  Node B01 (25.03%)
  Node B00 (24.42%)
  Node A01 (24.42%)
  Node A09 (22.78%)
  Node J00 (22.78%)
  
  
  ********************************
  Highest Flow Instability Indexes
  ********************************
  All links are stable.
  
  
  *************************
  Routing Time Step Summary
  *************************
  Minimum Time Step           :     1.00 sec
  Average Time Step           :     1.00 sec
  Maximum Time Step           :     1.00 sec
  Percent in Steady State     :     0.00
  Average Iterations per Step :     2.00
  Percent Not Converging      :     0.00
  
  
  ******************
  Node Depth Summary
  ******************
  
  ---------------------------------------------------------------------------------
                                 Average  Maximum  Maximum  Time of Max    Reported
                                   Depth    Depth      HGL   Occurrence   Max Depth
  Node                 Type       Meters   Meters   Meters  days hr:min      Meters
  ---------------------------------------------------------------------------------
  A00                  JUNCTION     1.30     2.26     2.46     0  05:59        2.26
  A01                  JUNCTION     1.31     2.27     2.46     0  05:59        2.27
  A02                  JUNCTION     1.32     2.28     2.46     0  05:59        2.28
  A03                  JUNCTION     1.33     2.29     2.46     0  05:20        2.29
  A04                  JUNCTION     1.33     2.30     2.46     0  05:16        2.30
  A05                  JUNCTION     1.34     2.31     2.46     0  05:17        2.31
  A06                  JUNCTION     1.35     2.32     2.46     0  05:30        2.32
  A07                  JUNCTION     1.36     2.33     2.46     0  05:20        2.33
  A08                  JUNCTION     1.37     2.34     2.46     0  05:13        2.34
  A09                  JUNCTION     1.38     2.35     2.46     0  05:59        2.35
  A10                  JUNCTION     1.39     2.36     2.46     0  05:05        2.36
  B00                  JUNCTION     1.31     2.27     2.46     0  05:59        2.27
  B01                  JUNCTION     1.32     2.28     2.46     0  05:15        2.28
  B02                  JUNCTION     1.33     2.29     2.46     0  05:14        2.29
  B03                  JUNCTION     1.33     2.30     2.46     0  06:00        2.30
  B04                  JUNCTION     1.34     2.31     2.46     0  06:00        2.31
  B05                  JUNCTION     1.35     2.32     2.46     0  05:37        2.32
  B06                  JUNCTION     1.36     2.33     2.46     0  05:31        2.33
  B07                  JUNCTION     1.37     2.34     2.46     0  05:32        2.34
  B08                  JUNCTION     1.38     2.34     2.45     0  05:23        2.34
  B09                  JUNCTION     1.39     2.35     2.45     0  05:17        2.35
  B10                  JUNCTION     1.40     2.36     2.45     0  05:59        2.36
  C00                  JUNCTION     1.32     2.28     2.46     0  05:59        2.28
  C01                  JUNCTION     1.33     2.29     2.46     0  05:14        2.29
  C02                  JUNCTION     1.33     2.30     2.46     0  05:14        2.30
  C03                  JUNCTION     1.34     2.31     2.46     0  05:20        2.31
  C04                  JUNCTION     1.35     2.32     2.46     0  05:29        2.32
  C05                  JUNCTION     1.36     2.33     2.46     0  05:23        2.33
  C06                  JUNCTION     1.37     2.33     2.45     0  05:31        2.33
  C07                  JUNCTION     1.38     2.34     2.45     0  05:21        2.34
  C08                  JUNCTION     1.39     2.35     2.45     0  05:20        2.35
  C09                  JUNCTION     1.40     2.36     2.45     0  05:28        2.36
  C10                  JUNCTION     1.41     2.37     2.45     0  05:10        2.37
  D00                  JUNCTION     1.33     2.29     2.46     0  05:20        2.29
  D01                  JUNCTION     1.33     2.30     2.46     0  06:00        2.30
  D02                  JUNCTION     1.34     2.31     2.46     0  05:20        2.31
  D03                  JUNCTION     1.35     2.32     2.46     0  05:22        2.32
  D04                  JUNCTION     1.36     2.33     2.46     0  05:22        2.33
  D05                  JUNCTION     1.37     2.33     2.45     0  05:21        2.33
  D06                  JUNCTION     1.38     2.34     2.45     0  05:21        2.34
  D07                  JUNCTION     1.39     2.35     2.45     0  05:22        2.35
  D08                  JUNCTION     1.40     2.36     2.45     0  05:17        2.36
  D09                  JUNCTION     1.41     2.37     2.45     0  05:32        2.37
  D10                  JUNCTION     1.42     2.38     2.45     0  05:18        2.38
  E00                  JUNCTION     1.33     2.30     2.46     0  05:16        2.30
  E01                  JUNCTION     1.34     2.31     2.46     0  06:00        2.31
  E02                  JUNCTION     1.35     2.32     2.46     0  05:29        2.32
  E03                  JUNCTION     1.36     2.33     2.46     0  05:22        2.33
  E04                  JUNCTION     1.37     2.33     2.45     0  05:08        2.33
  E05                  JUNCTION     1.38     2.34     2.45     0  05:19        2.34
  E06                  JUNCTION     1.39     2.35     2.45     0  05:14        2.35
  E07                  JUNCTION     1.40     2.36     2.45     0  05:18        2.36
  E08                  JUNCTION     1.41     2.37     2.45     0  05:29        2.37
  E09                  JUNCTION     1.42     2.38     2.45     0  05:26        2.38
  E10                  JUNCTION     1.43     2.39     2.45     0  05:29        2.39
  F00                  JUNCTION     1.34     2.31     2.46     0  05:17        2.31
  F01                  JUNCTION     1.35     2.32     2.46     0  05:37        2.32
  F02                  JUNCTION     1.36     2.33     2.46     0  05:23        2.33
  F03                  JUNCTION     1.37     2.33     2.45     0  05:21        2.33
  F04                  JUNCTION     1.38     2.34     2.45     0  05:19        2.34
  F05                  JUNCTION     1.39     2.35     2.45     0  05:04        2.35
  F06                  JUNCTION     1.40     2.36     2.45     0  05:20        2.36
  F07                  JUNCTION     1.40     2.37     2.45     0  05:12        2.37
  F08                  JUNCTION     1.41     2.38     2.45     0  05:23        2.38
  F09                  JUNCTION     1.42     2.38     2.44     0  05:31        2.38
  F10                  JUNCTION     1.43     2.39     2.44     0  05:23        2.39
  G00                  JUNCTION     1.35     2.32     2.46     0  05:30        2.32
  G01                  JUNCTION     1.36     2.33     2.46     0  05:31        2.33
  G02                  JUNCTION     1.37     2.33     2.45     0  05:31        2.33
  G03                  JUNCTION     1.38     2.34     2.45     0  05:21        2.34
  G04                  JUNCTION     1.39     2.35     2.45     0  05:14        2.35
  G05                  JUNCTION     1.40     2.36     2.45     0  05:20        2.36
  G06                  JUNCTION     1.40     2.37     2.45     0  05:10        2.37
  G07                  JUNCTION     1.41     2.37     2.44     0  05:20        2.37
  G08                  JUNCTION     1.42     2.38     2.44     0  05:21        2.38
  G09                  JUNCTION     1.43     2.39     2.44     0  05:28        2.39
  G10                  JUNCTION     1.44     2.39     2.43     0  05:29        2.39
  H00                  JUNCTION     1.36     2.33     2.46     0  05:20        2.33
  H01                  JUNCTION     1.37     2.34     2.46     0  05:32        2.34
  H02                  JUNCTION     1.38     2.34     2.45     0  05:21        2.34
  H03                  JUNCTION     1.39     2.35     2.45     0  05:22        2.35
  H04                  JUNCTION     1.40     2.36     2.45     0  05:18        2.36
  H05                  JUNCTION     1.40     2.37     2.45     0  05:12        2.37
  H06                  JUNCTION     1.41     2.37     2.44     0  05:20        2.37
  H07                  JUNCTION     1.42     2.37     2.43     0  05:23        2.37
  H08                  JUNCTION     1.42     2.38     2.43     0  05:41        2.38
  H09                  JUNCTION     1.43     2.38     2.42     0  05:30        2.38
  H10                  JUNCTION     1.44     2.39     2.42     0  05:31        2.39
  I00                  JUNCTION     1.37     2.34     2.46     0  05:13        2.34
  I01                  JUNCTION     1.38     2.34     2.45     0  05:23        2.34
  I02                  JUNCTION     1.39     2.35     2.45     0  05:20        2.35
  I03                  JUNCTION     1.40     2.36     2.45     0  05:17        2.36
  I04                  JUNCTION     1.41     2.37     2.45     0  05:29        2.37
  I05                  JUNCTION     1.41     2.38     2.45     0  05:23        2.38
  I06                  JUNCTION     1.42     2.38     2.44     0  05:21        2.38
  I07                  JUNCTION     1.42     2.38     2.43     0  05:41        2.38
  I08                  JUNCTION     1.42     2.37     2.41     0  05:29        2.37
  I09                  JUNCTION     1.42     2.36     2.39     0  05:33        2.36
  I10                  JUNCTION     1.43     2.36     2.38     0  05:31        2.36
  J00                  JUNCTION     1.38     2.35     2.46     0  05:59        2.35
  J01                  JUNCTION     1.39     2.35     2.45     0  05:17        2.35
  J02                  JUNCTION     1.40     2.36     2.45     0  05:28        2.36
  J03                  JUNCTION     1.41     2.37     2.45     0  05:32        2.37
  J04                  JUNCTION     1.42     2.38     2.45     0  05:26        2.38
  J05                  JUNCTION     1.42     2.38     2.44     0  05:31        2.38
  J06                  JUNCTION     1.43     2.39     2.44     0  05:28        2.39
  J07                  JUNCTION     1.43     2.38     2.42     0  05:30        2.38
  J08                  JUNCTION     1.42     2.36     2.39     0  05:33        2.36
  J09                  JUNCTION     1.41     2.32     2.34     0  05:24        2.32
  J10                  JUNCTION     1.39     2.28     2.29     0  05:27        2.28
  K00                  JUNCTION     1.39     2.36     2.46     0  05:05        2.36
  K01                  JUNCTION     1.40     2.36     2.45     0  05:59        2.36
  K02                  JUNCTION     1.41     2.37     2.45     0  05:10        2.37
  K03                  JUNCTION     1.42     2.38     2.45     0  05:18        2.38
  K04                  JUNCTION     1.43     2.39     2.45     0  05:29        2.39
  K05                  JUNCTION     1.43     2.39     2.44     0  05:23        2.39
  K06                  JUNCTION     1.44     2.39     2.43     0  05:29        2.39
  K07                  JUNCTION     1.44     2.39     2.42     0  05:31        2.39
  K08                  JUNCTION     1.43     2.36     2.38     0  05:31        2.36
  K09                  JUNCTION     1.39     2.28     2.29     0  05:27        2.28
  K10                  JUNCTION     1.26     2.02     2.02     0  05:19        2.02
  Outfall              OUTFALL      0.58     0.83     0.83     0  05:33        0.83
  
  
  *******************
  Node Inflow Summary
  *******************
  
  -------------------------------------------------------------------------------------------------
                                  Maximum  Maximum                  Lateral       Total        Flow
                                  Lateral    Total  Time of Max      Inflow      Inflow     Balance
                                   Inflow   Inflow   Occurrence      Volume      Volume       Error
  Node                 Type           CMS      CMS  days hr:min    10^6 ltr    10^6 ltr     Percent
  -------------------------------------------------------------------------------------------------
  A00                  JUNCTION     0.017    0.017     0  00:00       0.375       0.375      29.120
  A01                  JUNCTION     0.017    0.027     0  02:58       0.375       0.521      32.309
  A02                  JUNCTION     0.017    0.034     0  06:00       0.375       0.618      25.900
  A03                  JUNCTION     0.017    0.042     0  06:00       0.375         0.7      22.205
  A04                  JUNCTION     0.017    0.047     0  06:00       0.375       0.755      20.242
  A05                  JUNCTION     0.017    0.049     0  05:54       0.375       0.777      19.564
  A06                  JUNCTION     0.017    0.048     0  06:00       0.375       0.763      20.007
  A07                  JUNCTION     0.017    0.045     0  06:00       0.375       0.716      21.621
  A08                  JUNCTION     0.017    0.039     0  03:34       0.375       0.643      24.687
  A09                  JUNCTION     0.017    0.033     0  03:34       0.375       0.559      29.507
  A10                  JUNCTION     0.017    0.025     0  03:34       0.375       0.453      23.058
  B00                  JUNCTION     0.017    0.027     0  02:58       0.375       0.521      32.309
  B01                  JUNCTION     0.017    0.036     0  03:24       0.375       0.678      33.384
  B02                  JUNCTION     0.017    0.046     0  03:38       0.375       0.797      27.073
  B03                  JUNCTION     0.017    0.055     0  03:45       0.375        0.91      22.933
  B04                  JUNCTION     0.017    0.063     0  06:00       0.375           1      20.358
  B05                  JUNCTION     0.017    0.069     0  04:12       0.375        1.06      18.974
  B06                  JUNCTION     0.017    0.071     0  03:58       0.375        1.08      18.570
  B07                  JUNCTION     0.017    0.069     0  03:59       0.375        1.06      19.062
  B08                  JUNCTION     0.017    0.065     0  03:52       0.375           1      20.458
  B09                  JUNCTION     0.017    0.058     0  03:44       0.375       0.921      22.640
  B10                  JUNCTION     0.017    0.050     0  03:52       0.375       0.815      18.544
  C00                  JUNCTION     0.017    0.034     0  06:00       0.375       0.618      25.900
  C01                  JUNCTION     0.017    0.046     0  03:38       0.375       0.797      27.073
  C02                  JUNCTION     0.017    0.058     0  03:38       0.375       0.947      21.848
  C03                  JUNCTION     0.017    0.071     0  03:45       0.375         1.1      18.194
  C04                  JUNCTION     0.017    0.083     0  03:51       0.375        1.25      15.768
  C05                  JUNCTION     0.017    0.092     0  04:05       0.375        1.36      14.300
  C06                  JUNCTION     0.017    0.098     0  04:05       0.375        1.42      13.606
  C07                  JUNCTION     0.017    0.098     0  04:08       0.375        1.42      13.585
  C08                  JUNCTION     0.017    0.094     0  03:57       0.375        1.37      14.192
  C09                  JUNCTION     0.017    0.087     0  03:59       0.375        1.28      15.354
  C10                  JUNCTION     0.017    0.078     0  03:57       0.375        1.15      12.423
  D00                  JUNCTION     0.017    0.042     0  06:00       0.375         0.7      22.205
  D01                  JUNCTION     0.017    0.055     0  03:45       0.375        0.91      22.933
  D02                  JUNCTION     0.017    0.071     0  03:45       0.375         1.1      18.194
  D03                  JUNCTION     0.017    0.088     0  03:52       0.375        1.32      14.819
  D04                  JUNCTION     0.017    0.105     0  04:25       0.375        1.53      12.521
  D05                  JUNCTION     0.017    0.120     0  05:59       0.375        1.71      11.055
  D06                  JUNCTION     0.017    0.131     0  05:59       0.375        1.83      10.251
  D07                  JUNCTION     0.017    0.134     0  06:00       0.375        1.87      10.014
  D08                  JUNCTION     0.017    0.131     0  06:00       0.375        1.82      10.302
  D09                  JUNCTION     0.017    0.122     0  06:00       0.375         1.7      11.079
  D10                  JUNCTION     0.017    0.109     0  04:08       0.375        1.54       9.023
  E00                  JUNCTION     0.017    0.047     0  06:00       0.375       0.755      20.242
  E01                  JUNCTION     0.017    0.063     0  06:00       0.375           1      20.358
  E02                  JUNCTION     0.017    0.083     0  03:51       0.375        1.25      15.768
  E03                  JUNCTION     0.017    0.105     0  04:25       0.375        1.53      12.521
  E04                  JUNCTION     0.017    0.129     0  04:44       0.375        1.82      10.289
  E05                  JUNCTION     0.017    0.152     0  04:56       0.375         2.1       8.816
  E06                  JUNCTION     0.017    0.169     0  05:04       0.375        2.31       7.933
  E07                  JUNCTION     0.017    0.179     0  04:57       0.375        2.42       7.550
  E08                  JUNCTION     0.017    0.177     0  04:48       0.375        2.39       7.638
  E09                  JUNCTION     0.017    0.165     0  04:47       0.375        2.25       8.188
  E10                  JUNCTION     0.017    0.147     0  05:15       0.375        2.01       6.765
  F00                  JUNCTION     0.017    0.049     0  05:54       0.375       0.777      19.564
  F01                  JUNCTION     0.017    0.069     0  04:12       0.375        1.06      18.974
  F02                  JUNCTION     0.017    0.092     0  04:05       0.375        1.36      14.300
  F03                  JUNCTION     0.017    0.120     0  05:59       0.375        1.71      11.055
  F04                  JUNCTION     0.017    0.152     0  04:56       0.375         2.1       8.816
  F05                  JUNCTION     0.017    0.184     0  04:50       0.375         2.5       7.297
  F06                  JUNCTION     0.017    0.213     0  04:57       0.375        2.86       6.322
  F07                  JUNCTION     0.017    0.233     0  04:46       0.375         3.1       5.800
  F08                  JUNCTION     0.017    0.237     0  04:42       0.375        3.15       5.707
  F09                  JUNCTION     0.017    0.223     0  04:41       0.375        2.97       6.066
  F10                  JUNCTION     0.017    0.196     0  04:47       0.375        2.63       5.102
  G00                  JUNCTION     0.017    0.048     0  06:00       0.375       0.763      20.007
  G01                  JUNCTION     0.017    0.071     0  03:58       0.375        1.08      18.570
  G02                  JUNCTION     0.017    0.098     0  04:05       0.375        1.42      13.606
  G03                  JUNCTION     0.017    0.131     0  05:59       0.375        1.83      10.251
  G04                  JUNCTION     0.017    0.169     0  05:04       0.375        2.31       7.933
  G05                  JUNCTION     0.017    0.213     0  04:57       0.375        2.86       6.322
  G06                  JUNCTION     0.017    0.258     0  04:49       0.375        3.42       5.227
  G07                  JUNCTION     0.017    0.297     0  04:51       0.375         3.9       4.553
  G08                  JUNCTION     0.017    0.317     0  04:52       0.375        4.15       4.273
  G09                  JUNCTION     0.017    0.306     0  04:56       0.375        4.01       4.426
  G10                  JUNCTION     0.017    0.265     0  04:56       0.375         3.5       3.782
  H00                  JUNCTION     0.017    0.045     0  06:00       0.375       0.716      21.621
  H01                  JUNCTION     0.017    0.069     0  03:59       0.375        1.06      19.062
  H02                  JUNCTION     0.017    0.098     0  04:08       0.375        1.42      13.585
  H03                  JUNCTION     0.017    0.134     0  06:00       0.375        1.87      10.014
  H04                  JUNCTION     0.017    0.179     0  04:57       0.375        2.42       7.550
  H05                  JUNCTION     0.017    0.233     0  04:46       0.375         3.1       5.800
  H06                  JUNCTION     0.017    0.297     0  04:51       0.375         3.9       4.553
  H07                  JUNCTION     0.017    0.365     0  04:55       0.375        4.75       3.707
  H08                  JUNCTION     0.017    0.419     0  04:59       0.375        5.44       3.223
  H09                  JUNCTION     0.017    0.431     0  05:08       0.375        5.59       3.137
  H10                  JUNCTION     0.017    0.376     0  05:11       0.375         4.9       2.672
  I00                  JUNCTION     0.017    0.039     0  03:34       0.375       0.643      24.687
  I01                  JUNCTION     0.017    0.065     0  03:52       0.375           1      20.458
  I02                  JUNCTION     0.017    0.094     0  03:57       0.375        1.37      14.192
  I03                  JUNCTION     0.017    0.131     0  06:00       0.375        1.82      10.302
  I04                  JUNCTION     0.017    0.177     0  04:48       0.375        2.39       7.638
  I05                  JUNCTION     0.017    0.237     0  04:42       0.375        3.15       5.707
  I06                  JUNCTION     0.017    0.317     0  04:52       0.375        4.15       4.273
  I07                  JUNCTION     0.017    0.419     0  04:59       0.375        5.44       3.223
  I08                  JUNCTION     0.017    0.536     0  05:05       0.375        6.92       2.517
  I09                  JUNCTION     0.017    0.623     0  05:09       0.375        8.02       2.166
  I10                  JUNCTION     0.017    0.585     0  05:17       0.375        7.54       1.720
  J00                  JUNCTION     0.017    0.033     0  03:34       0.375       0.559      29.507
  J01                  JUNCTION     0.017    0.058     0  03:44       0.375       0.921      22.640
  J02                  JUNCTION     0.017    0.087     0  03:59       0.375        1.28      15.354
  J03                  JUNCTION     0.017    0.122     0  06:00       0.375         1.7      11.079
  J04                  JUNCTION     0.017    0.165     0  04:47       0.375        2.25       8.188
  J05                  JUNCTION     0.017    0.223     0  04:41       0.375        2.97       6.066
  J06                  JUNCTION     0.017    0.306     0  04:56       0.375        4.01       4.426
  J07                  JUNCTION     0.017    0.431     0  05:08       0.375        5.59       3.137
  J08                  JUNCTION     0.017    0.623     0  05:09       0.375        8.02       2.166
  J09                  JUNCTION     0.017    0.880     0  05:17       0.375        11.3       1.530
  J10                  JUNCTION     0.017    1.043     0  05:31       0.375        13.3       0.966
  K00                  JUNCTION     0.017    0.025     0  03:34       0.375       0.453      23.058
  K01                  JUNCTION     0.017    0.050     0  03:52       0.375       0.815      18.544
  K02                  JUNCTION     0.017    0.078     0  03:57       0.375        1.15      12.423
  K03                  JUNCTION     0.017    0.109     0  04:08       0.375        1.54       9.023
  K04                  JUNCTION     0.017    0.147     0  05:15       0.375        2.01       6.765
  K05                  JUNCTION     0.017    0.196     0  04:47       0.375        2.63       5.102
  K06                  JUNCTION     0.017    0.265     0  04:56       0.375         3.5       3.782
  K07                  JUNCTION     0.017    0.376     0  05:11       0.375         4.9       2.672
  K08                  JUNCTION     0.017    0.585     0  05:17       0.375        7.54       1.720
  K09                  JUNCTION     0.017    1.043     0  05:31       0.375        13.3       0.966
  K10                  JUNCTION     0.017    2.102     0  05:33       0.375        26.8       0.493
  Outfall              OUTFALL      0.000    2.102     0  05:33           0        26.7       0.000
  
  
  **********************
  Node Surcharge Summary
  **********************
  
  Surcharging occurs when water rises above the top of the highest conduit.
  ---------------------------------------------------------------------
                                               Max. Height   Min. Depth
                                   Hours       Above Crown    Below Rim
  Node                 Type      Surcharged         Meters       Meters
  ---------------------------------------------------------------------
  A00                  JUNCTION        2.99          1.256        7.744
  A01                  JUNCTION        3.00          1.266        7.734
  A02                  JUNCTION        3.02          1.276        7.724
  A03                  JUNCTION        3.03          1.286        7.714
  A04                  JUNCTION        3.04          1.296        7.704
  A05                  JUNCTION        3.05          1.306        7.694
  A06                  JUNCTION        3.06          1.315        7.685
  A07                  JUNCTION        3.07          1.325        7.675
  A08                  JUNCTION        3.08          1.335        7.665
  A09                  JUNCTION        3.09          1.345        7.655
  A10                  JUNCTION        3.11          1.355        7.645
  B00                  JUNCTION        3.00          1.266        7.734
  B01                  JUNCTION        3.02          1.276        7.724
  B02                  JUNCTION        3.03          1.286        7.714
  B03                  JUNCTION        3.04          1.296        7.704
  B04                  JUNCTION        3.05          1.306        7.694
  B05                  JUNCTION        3.06          1.316        7.684
  B06                  JUNCTION        3.07          1.325        7.675
  B07                  JUNCTION        3.08          1.335        7.665
  B08                  JUNCTION        3.09          1.345        7.655
  B09                  JUNCTION        3.11          1.355        7.645
  B10                  JUNCTION        3.13          1.365        7.635
  C00                  JUNCTION        3.02          1.276        7.724
  C01                  JUNCTION        3.03          1.286        7.714
  C02                  JUNCTION        3.04          1.296        7.704
  C03                  JUNCTION        3.05          1.306        7.694
  C04                  JUNCTION        3.06          1.316        7.684
  C05                  JUNCTION        3.07          1.325        7.675
  C06                  JUNCTION        3.08          1.335        7.665
  C07                  JUNCTION        3.09          1.345        7.655
  C08                  JUNCTION        3.11          1.354        7.646
  C09                  JUNCTION        3.12          1.364        7.636
  C10                  JUNCTION        3.14          1.374        7.626
  D00                  JUNCTION        3.03          1.286        7.714
  D01                  JUNCTION        3.04          1.296        7.704
  D02                  JUNCTION        3.05          1.306        7.694
  D03                  JUNCTION        3.06          1.316        7.684
  D04                  JUNCTION        3.07          1.325        7.675
  D05                  JUNCTION        3.08          1.334        7.666
  D06                  JUNCTION        3.09          1.344        7.656
  D07                  JUNCTION        3.11          1.353        7.647
  D08                  JUNCTION        3.12          1.363        7.637
  D09                  JUNCTION        3.14          1.373        7.627
  D10                  JUNCTION        3.16          1.383        7.617
  E00                  JUNCTION        3.04          1.296        7.704
  E01                  JUNCTION        3.05          1.306        7.694
  E02                  JUNCTION        3.06          1.316        7.684
  E03                  JUNCTION        3.07          1.325        7.675
  E04                  JUNCTION        3.08          1.334        7.666
  E05                  JUNCTION        3.09          1.343        7.657
  E06                  JUNCTION        3.11          1.352        7.648
  E07                  JUNCTION        3.12          1.361        7.639
  E08                  JUNCTION        3.14          1.370        7.630
  E09                  JUNCTION        3.16          1.380        7.620
  E10                  JUNCTION        3.18          1.390        7.610
  F00                  JUNCTION        3.05          1.306        7.694
  F01                  JUNCTION        3.06          1.316        7.684
  F02                  JUNCTION        3.07          1.325        7.675
  F03                  JUNCTION        3.08          1.334        7.666
  F04                  JUNCTION        3.09          1.343        7.657
  F05                  JUNCTION        3.11          1.351        7.649
  F06                  JUNCTION        3.12          1.359        7.641
  F07                  JUNCTION        3.14          1.367        7.633
  F08                  JUNCTION        3.16          1.375        7.625
  F09                  JUNCTION        3.18          1.384        7.616
  F10                  JUNCTION        3.20          1.394        7.606
  G00                  JUNCTION        3.06          1.315        7.685
  G01                  JUNCTION        3.07          1.325        7.675
  G02                  JUNCTION        3.08          1.335        7.665
  G03                  JUNCTION        3.09          1.344        7.656
  G04                  JUNCTION        3.11          1.352        7.648
  G05                  JUNCTION        3.12          1.359        7.641
  G06                  JUNCTION        3.14          1.366        7.634
  G07                  JUNCTION        3.16          1.371        7.629
  G08                  JUNCTION        3.17          1.378        7.622
  G09                  JUNCTION        3.20          1.385        7.615
  G10                  JUNCTION        3.22          1.394        7.606
  H00                  JUNCTION        3.07          1.325        7.675
  H01                  JUNCTION        3.08          1.335        7.665
  H02                  JUNCTION        3.09          1.345        7.655
  H03                  JUNCTION        3.11          1.353        7.647
  H04                  JUNCTION        3.12          1.361        7.639
  H05                  JUNCTION        3.14          1.367        7.633
  H06                  JUNCTION        3.16          1.371        7.629
  H07                  JUNCTION        3.17          1.374        7.626
  H08                  JUNCTION        3.19          1.375        7.625
  H09                  JUNCTION        3.21          1.379        7.621
  H10                  JUNCTION        3.24          1.387        7.613
  I00                  JUNCTION        3.08          1.335        7.665
  I01                  JUNCTION        3.09          1.345        7.655
  I02                  JUNCTION        3.11          1.354        7.646
  I03                  JUNCTION        3.12          1.363        7.637
  I04                  JUNCTION        3.14          1.370        7.630
  I05                  JUNCTION        3.16          1.375        7.625
  I06                  JUNCTION        3.17          1.378        7.622
  I07                  JUNCTION        3.19          1.375        7.625
  I08                  JUNCTION        3.21          1.368        7.632
  I09                  JUNCTION        3.22          1.360        7.640
  I10                  JUNCTION        3.25          1.360        7.640
  J00                  JUNCTION        3.09          1.345        7.655
  J01                  JUNCTION        3.11          1.355        7.645
  J02                  JUNCTION        3.12          1.364        7.636
  J03                  JUNCTION        3.14          1.373        7.627
  J04                  JUNCTION        3.16          1.380        7.620
  J05                  JUNCTION        3.18          1.384        7.616
  J06                  JUNCTION        3.20          1.385        7.615
  J07                  JUNCTION        3.21          1.379        7.621
  J08                  JUNCTION        3.22          1.360        7.640
  J09                  JUNCTION        3.22          1.322        7.678
  J10                  JUNCTION        3.22          1.283        7.717
  K00                  JUNCTION        3.11          1.355        7.645
  K01                  JUNCTION        3.13          1.365        7.635
  K02                  JUNCTION        3.14          1.374        7.626
  K03                  JUNCTION        3.16          1.383        7.617
  K04                  JUNCTION        3.18          1.390        7.610
  K05                  JUNCTION        3.20          1.394        7.606
  K06                  JUNCTION        3.22          1.394        7.606
  K07                  JUNCTION        3.24          1.387        7.613
  K08                  JUNCTION        3.25          1.360        7.640
  K09                  JUNCTION        3.22          1.283        7.717
  K10                  JUNCTION        3.09          1.015        7.985
  
  
  *********************
  Node Flooding Summary
  *********************
  
  No nodes were flooded.
  
  
  ***********************
  Outfall Loading Summary
  ***********************
  
  -----------------------------------------------------------
                         Flow       Avg       Max       Total
                         Freq      Flow      Flow      Volume
  Outfall Node           Pcnt       CMS       CMS    10^6 ltr
  -----------------------------------------------------------
  Outfall               99.90     1.236     2.102      26.674
  -----------------------------------------------------------
  System                99.90     1.236     2.102      26.674
  
  
  ********************
  Link Flow Summary
  ********************
  
  -----------------------------------------------------------------------------
                                 Maximum  Time of Max   Maximum    Max/    Max/
                                  |Flow|   Occurrence   |Veloc|    Full    Full
  Link                 Type          CMS  days hr:min     m/sec    Flow   Depth
  -----------------------------------------------------------------------------
  121                  CONDUIT     0.009     0  02:58      0.13    0.05    1.00
  122                  CONDUIT     0.017     0  06:00      0.12    0.09    1.00
  123                  CONDUIT     0.024     0  06:00      0.13    0.12    1.00
  124                  CONDUIT     0.029     0  06:00      0.14    0.15    1.00
  125                  CONDUIT     0.032     0  05:54      0.14    0.16    1.00
  126                  CONDUIT     0.031     0  06:00      0.13    0.16    1.00
  127                  CONDUIT     0.027     0  06:00      0.12    0.14    1.00
  128                  CONDUIT     0.022     0  03:34      0.09    0.11    1.00
  129                  CONDUIT     0.015     0  03:34      0.07    0.08    1.00
  130                  CONDUIT     0.008     0  03:34      0.06    0.04    1.00
  131                  CONDUIT     0.009     0  03:24      0.14    0.05    1.00
  132                  CONDUIT     0.018     0  03:38      0.13    0.09    1.00
  133                  CONDUIT     0.025     0  03:45      0.13    0.13    1.00
  134                  CONDUIT     0.031     0  03:55      0.14    0.16    1.00
  135                  CONDUIT     0.033     0  03:55      0.14    0.17    1.00
  136                  CONDUIT     0.032     0  03:47      0.13    0.17    1.00
  137                  CONDUIT     0.029     0  03:37      0.12    0.15    1.00
  138                  CONDUIT     0.023     0  03:34      0.10    0.12    1.00
  139                  CONDUIT     0.016     0  03:34      0.07    0.08    1.00
  140                  CONDUIT     0.008     0  03:34      0.06    0.04    1.00
  141                  CONDUIT     0.010     0  03:24      0.13    0.05    1.00
  142                  CONDUIT     0.020     0  03:38      0.13    0.10    1.00
  143                  CONDUIT     0.029     0  03:45      0.14    0.15    1.00
  144                  CONDUIT     0.035     0  03:45      0.14    0.18    1.00
  145                  CONDUIT     0.039     0  03:44      0.14    0.20    1.00
  146                  CONDUIT     0.039     0  03:47      0.13    0.20    1.00
  147                  CONDUIT     0.035     0  03:39      0.12    0.18    1.00
  148                  CONDUIT     0.028     0  03:34      0.10    0.15    1.00
  149                  CONDUIT     0.020     0  03:34      0.07    0.10    1.00
  150                  CONDUIT     0.010     0  03:32      0.06    0.05    1.00
  151                  CONDUIT     0.012     0  03:37      0.13    0.06    1.00
  152                  CONDUIT     0.024     0  03:51      0.13    0.13    1.00
  153                  CONDUIT     0.035     0  03:52      0.14    0.18    1.00
  154                  CONDUIT     0.044     0  04:00      0.15    0.23    1.00
  155                  CONDUIT     0.049     0  04:18      0.15    0.25    1.00
  156                  CONDUIT     0.050     0  05:59      0.13    0.26    1.00
  157                  CONDUIT     0.047     0  05:59      0.12    0.24    1.00
  158                  CONDUIT     0.039     0  06:00      0.10    0.20    1.00
  159                  CONDUIT     0.027     0  05:59      0.07    0.14    1.00
  160                  CONDUIT     0.014     0  05:59      0.05    0.07    1.00
  161                  CONDUIT     0.015     0  06:00      0.13    0.08    1.00
  162                  CONDUIT     0.030     0  06:00      0.13    0.15    1.00
  163                  CONDUIT     0.044     0  06:00      0.14    0.23    1.00
  164                  CONDUIT     0.056     0  04:44      0.15    0.29    1.00
  165                  CONDUIT     0.065     0  04:46      0.15    0.33    1.00
  166                  CONDUIT     0.068     0  04:57      0.13    0.35    1.00
  167                  CONDUIT     0.066     0  05:06      0.12    0.34    1.00
  168                  CONDUIT     0.056     0  04:56      0.10    0.29    1.00
  169                  CONDUIT     0.040     0  04:50      0.07    0.20    1.00
  170                  CONDUIT     0.020     0  04:43      0.05    0.10    1.00
  171                  CONDUIT     0.018     0  05:48      0.13    0.09    1.00
  172                  CONDUIT     0.036     0  06:00      0.13    0.19    1.00
  173                  CONDUIT     0.054     0  06:00      0.14    0.27    1.00
  174                  CONDUIT     0.070     0  05:59      0.15    0.36    1.00
  175                  CONDUIT     0.083     0  04:50      0.15    0.43    1.00
  176                  CONDUIT     0.092     0  04:53      0.13    0.47    1.00
  177                  CONDUIT     0.093     0  04:42      0.12    0.48    1.00
  178                  CONDUIT     0.083     0  04:30      0.11    0.42    1.00
  179                  CONDUIT     0.061     0  04:22      0.08    0.31    1.00
  180                  CONDUIT     0.032     0  04:22      0.05    0.16    1.00
  181                  CONDUIT     0.021     0  05:06      0.13    0.11    1.00
  182                  CONDUIT     0.042     0  05:57      0.13    0.21    1.00
  183                  CONDUIT     0.063     0  05:59      0.14    0.32    1.00
  184                  CONDUIT     0.084     0  04:48      0.15    0.43    1.00
  185                  CONDUIT     0.104     0  04:50      0.15    0.53    1.00
  186                  CONDUIT     0.120     0  04:49      0.15    0.62    1.00
  187                  CONDUIT     0.129     0  04:41      0.16    0.66    1.00
  188                  CONDUIT     0.123     0  04:30      0.16    0.63    1.00
  189                  CONDUIT     0.097     0  04:36      0.12    0.50    1.00
  190                  CONDUIT     0.052     0  04:24      0.07    0.27    1.00
  191                  CONDUIT     0.023     0  05:18      0.13    0.12    1.00
  192                  CONDUIT     0.046     0  05:59      0.13    0.24    1.00
  193                  CONDUIT     0.070     0  05:59      0.14    0.36    1.00
  194                  CONDUIT     0.096     0  04:36      0.15    0.49    1.00
  195                  CONDUIT     0.123     0  04:42      0.16    0.63    1.00
  196                  CONDUIT     0.150     0  04:49      0.19    0.77    1.00
  197                  CONDUIT     0.174     0  04:55      0.22    0.89    1.00
  198                  CONDUIT     0.182     0  04:48      0.23    0.94    1.00
  199                  CONDUIT     0.160     0  04:50      0.20    0.82    1.00
  200                  CONDUIT     0.094     0  04:42      0.12    0.48    1.00
  201                  CONDUIT     0.024     0  06:00      0.14    0.12    1.00
  202                  CONDUIT     0.049     0  05:03      0.14    0.25    1.00
  203                  CONDUIT     0.075     0  04:23      0.14    0.38    1.00
  204                  CONDUIT     0.104     0  04:30      0.15    0.53    1.00
  205                  CONDUIT     0.137     0  04:46      0.17    0.70    1.00
  206                  CONDUIT     0.176     0  04:57      0.22    0.90    1.00
  207                  CONDUIT     0.220     0  05:01      0.28    1.13    1.00
  208                  CONDUIT     0.259     0  05:05      0.33    1.33    1.00
  209                  CONDUIT     0.268     0  05:10      0.34    1.38    1.00
  210                  CONDUIT     0.192     0  05:05      0.24    0.98    1.00
  211                  CONDUIT     0.025     0  06:00      0.15    0.13    1.00
  212                  CONDUIT     0.050     0  03:59      0.14    0.26    1.00
  213                  CONDUIT     0.077     0  03:59      0.15    0.40    1.00
  214                  CONDUIT     0.108     0  04:19      0.15    0.55    1.00
  215                  CONDUIT     0.145     0  05:59      0.18    0.74    1.00
  216                  CONDUIT     0.191     0  05:11      0.24    0.98    1.00
  217                  CONDUIT     0.254     0  05:05      0.32    1.30    1.00
  218                  CONDUIT     0.337     0  05:09      0.43    1.73    1.00
  219                  CONDUIT     0.431     0  05:17      0.55    2.21    1.00
  220                  CONDUIT     0.440     0  05:31      0.56    2.26    1.00
  221                  CONDUIT     0.025     0  03:47      0.14    0.13    1.00
  222                  CONDUIT     0.050     0  03:55      0.14    0.26    1.00
  223                  CONDUIT     0.078     0  03:55      0.15    0.40    1.00
  224                  CONDUIT     0.109     0  04:09      0.16    0.56    1.00
  225                  CONDUIT     0.147     0  05:31      0.19    0.75    1.00
  226                  CONDUIT     0.196     0  05:05      0.25    1.01    1.00
  227                  CONDUIT     0.265     0  04:59      0.34    1.36    1.00
  228                  CONDUIT     0.376     0  05:15      0.48    1.93    1.00
  229                  CONDUIT     0.585     0  05:31      0.75    3.00    1.00
  230                  CONDUIT     1.043     0  05:33      1.33    5.35    1.00
  231                  CONDUIT     0.025     0  03:47      0.14    0.13    1.00
  232                  CONDUIT     0.050     0  03:55      0.14    0.26    1.00
  233                  CONDUIT     0.078     0  03:55      0.15    0.40    1.00
  234                  CONDUIT     0.109     0  04:09      0.16    0.56    1.00
  235                  CONDUIT     0.147     0  05:31      0.19    0.75    1.00
  236                  CONDUIT     0.196     0  05:05      0.25    1.01    1.00
  237                  CONDUIT     0.265     0  04:59      0.34    1.36    1.00
  238                  CONDUIT     0.376     0  05:15      0.48    1.93    1.00
  239                  CONDUIT     0.585     0  05:31      0.75    3.00    1.00
  240                  CONDUIT     1.043     0  05:33      1.33    5.35    1.00
  241                  CONDUIT     2.102     0  05:33      2.68   61.81    1.00
  242                  CONDUIT     0.009     0  02:58      0.13    0.05    1.00
  243                  CONDUIT     0.017     0  06:00      0.12    0.09    1.00
  244                  CONDUIT     0.024     0  06:00      0.13    0.12    1.00
  245                  CONDUIT     0.029     0  06:00      0.14    0.15    1.00
  246                  CONDUIT     0.032     0  05:54      0.14    0.16    1.00
  247                  CONDUIT     0.031     0  06:00      0.13    0.16    1.00
  248                  CONDUIT     0.027     0  06:00      0.12    0.14    1.00
  249                  CONDUIT     0.022     0  03:34      0.09    0.11    1.00
  250                  CONDUIT     0.015     0  03:34      0.07    0.08    1.00
  251                  CONDUIT     0.008     0  03:34      0.06    0.04    1.00
  252                  CONDUIT     0.009     0  03:24      0.14    0.05    1.00
  253                  CONDUIT     0.018     0  03:38      0.13    0.09    1.00
  254                  CONDUIT     0.025     0  03:45      0.13    0.13    1.00
  255                  CONDUIT     0.031     0  03:55      0.14    0.16    1.00
  256                  CONDUIT     0.033     0  03:55      0.14    0.17    1.00
  257                  CONDUIT     0.032     0  03:47      0.13    0.17    1.00
  258                  CONDUIT     0.029     0  03:37      0.12    0.15    1.00
  259                  CONDUIT     0.023     0  03:34      0.10    0.12    1.00
  260                  CONDUIT     0.016     0  03:34      0.07    0.08    1.00
  261                  CONDUIT     0.008     0  03:34      0.06    0.04    1.00
  262                  CONDUIT     0.010     0  03:24      0.13    0.05    1.00
  263                  CONDUIT     0.020     0  03:38      0.13    0.10    1.00
  264                  CONDUIT     0.029     0  03:45      0.14    0.15    1.00
  265                  CONDUIT     0.035     0  03:45      0.14    0.18    1.00
  266                  CONDUIT     0.039     0  03:44      0.14    0.20    1.00
  267                  CONDUIT     0.039     0  03:47      0.13    0.20    1.00
  268                  CONDUIT     0.035     0  03:39      0.12    0.18    1.00
  269                  CONDUIT     0.028     0  03:34      0.10    0.15    1.00
  270                  CONDUIT     0.020     0  03:34      0.07    0.10    1.00
  271                  CONDUIT     0.010     0  03:32      0.06    0.05    1.00
  272                  CONDUIT     0.012     0  03:37      0.13    0.06    1.00
  273                  CONDUIT     0.024     0  03:51      0.13    0.13    1.00
  274                  CONDUIT     0.035     0  03:52      0.14    0.18    1.00
  275                  CONDUIT     0.044     0  04:00      0.15    0.23    1.00
  276                  CONDUIT     0.049     0  04:18      0.15    0.25    1.00
  277                  CONDUIT     0.050     0  05:59      0.13    0.26    1.00
  278                  CONDUIT     0.047     0  05:59      0.12    0.24    1.00
  279                  CONDUIT     0.039     0  06:00      0.10    0.20    1.00
  280                  CONDUIT     0.027     0  05:59      0.07    0.14    1.00
  281                  CONDUIT     0.014     0  05:59      0.05    0.07    1.00
  282                  CONDUIT     0.015     0  06:00      0.13    0.08    1.00
  283                  CONDUIT     0.030     0  06:00      0.13    0.15    1.00
  284                  CONDUIT     0.044     0  06:00      0.14    0.23    1.00
  285                  CONDUIT     0.056     0  04:44      0.15    0.29    1.00
  286                  CONDUIT     0.065     0  04:46      0.15    0.33    1.00
  287                  CONDUIT     0.068     0  04:57      0.13    0.35    1.00
  288                  CONDUIT     0.066     0  05:06      0.12    0.34    1.00
  289                  CONDUIT     0.056     0  04:56      0.10    0.29    1.00
  290                  CONDUIT     0.040     0  04:50      0.07    0.20    1.00
  291                  CONDUIT     0.020     0  04:43      0.05    0.10    1.00
  292                  CONDUIT     0.018     0  05:48      0.13    0.09    1.00
  293                  CONDUIT     0.036     0  06:00      0.13    0.19    1.00
  294                  CONDUIT     0.054     0  06:00      0.14    0.27    1.00
  295                  CONDUIT     0.070     0  05:59      0.15    0.36    1.00
  296                  CONDUIT     0.083     0  04:50      0.15    0.43    1.00
  297                  CONDUIT     0.092     0  04:53      0.13    0.47    1.00
  298                  CONDUIT     0.093     0  04:42      0.12    0.48    1.00
  299                  CONDUIT     0.083     0  04:30      0.11    0.42    1.00
  300                  CONDUIT     0.061     0  04:22      0.08    0.31    1.00
  301                  CONDUIT     0.032     0  04:22      0.05    0.16    1.00
  302                  CONDUIT     0.021     0  05:06      0.13    0.11    1.00
  303                  CONDUIT     0.042     0  05:57      0.13    0.21    1.00
  304                  CONDUIT     0.063     0  05:59      0.14    0.32    1.00
  305                  CONDUIT     0.084     0  04:48      0.15    0.43    1.00
  306                  CONDUIT     0.104     0  04:50      0.15    0.53    1.00
  307                  CONDUIT     0.120     0  04:49      0.15    0.62    1.00
  308                  CONDUIT     0.129     0  04:41      0.16    0.66    1.00
  309                  CONDUIT     0.123     0  04:30      0.16    0.63    1.00
  310                  CONDUIT     0.097     0  04:36      0.12    0.50    1.00
  311                  CONDUIT     0.052     0  04:24      0.07    0.27    1.00
  312                  CONDUIT     0.023     0  05:18      0.13    0.12    1.00
  313                  CONDUIT     0.046     0  05:59      0.13    0.24    1.00
  314                  CONDUIT     0.070     0  05:59      0.14    0.36    1.00
  315                  CONDUIT     0.096     0  04:36      0.15    0.49    1.00
  316                  CONDUIT     0.123     0  04:42      0.16    0.63    1.00
  317                  CONDUIT     0.150     0  04:49      0.19    0.77    1.00
  318                  CONDUIT     0.174     0  04:55      0.22    0.89    1.00
  319                  CONDUIT     0.182     0  04:48      0.23    0.94    1.00
  320                  CONDUIT     0.160     0  04:50      0.20    0.82    1.00
  321                  CONDUIT     0.094     0  04:42      0.12    0.48    1.00
  322                  CONDUIT     0.024     0  06:00      0.14    0.12    1.00
  323                  CONDUIT     0.049     0  05:03      0.14    0.25    1.00
  324                  CONDUIT     0.075     0  04:23      0.14    0.38    1.00
  325                  CONDUIT     0.104     0  04:30      0.15    0.53    1.00
  326                  CONDUIT     0.137     0  04:46      0.17    0.70    1.00
  327                  CONDUIT     0.176     0  04:57      0.22    0.90    1.00
  328                  CONDUIT     0.220     0  05:01      0.28    1.13    1.00
  329                  CONDUIT     0.259     0  05:05      0.33    1.33    1.00
  330                  CONDUIT     0.268     0  05:10      0.34    1.38    1.00
  331                  CONDUIT     0.192     0  05:05      0.24    0.98    1.00
  332                  CONDUIT     0.025     0  06:00      0.15    0.13    1.00
  333                  CONDUIT     0.050     0  03:59      0.14    0.26    1.00
  334                  CONDUIT     0.077     0  03:59      0.15    0.40    1.00
  335                  CONDUIT     0.108     0  04:19      0.15    0.55    1.00
  336                  CONDUIT     0.145     0  05:59      0.18    0.74    1.00
  337                  CONDUIT     0.191     0  05:11      0.24    0.98    1.00
  338                  CONDUIT     0.254     0  05:05      0.32    1.30    1.00
  339                  CONDUIT     0.337     0  05:09      0.43    1.73    1.00
  340                  CONDUIT     0.431     0  05:17      0.55    2.21    1.00
  341                  CONDUIT     0.440     0  05:31      0.56    2.26    1.00
  
  
  ***************************
  Flow Classification Summary
  ***************************
  
  -------------------------------------------------------------------------------------
                      Adjusted    ---------- Fraction of Time in Flow Class ---------- 
                       /Actual         Up    Down  Sub   Sup   Up    Down  Norm  Inlet 
  Conduit               Length    Dry  Dry   Dry   Crit  Crit  Crit  Crit  Ltd   Ctrl  
  -------------------------------------------------------------------------------------
  121                     1.00   0.00  0.00  0.00  1.00  0.00  0.00  0.00  0.00  0.00
  122                     1.00   0.00  0.00  0.00  1.00  0.00  0.00  0.00  0.00  0.00
  123                     1.00   0.00  0.00  0.00  1.00  0.00  0.00  0.00  0.00  0.00
  124                     1.00   0.00  0.00  0.00  1.00  0.00  0.00  0.00  0.00  0.00
  125                     1.00   0.00  0.00  0.00  1.00  0.00  0.00  0.00  0.00  0.00
  126                     1.00   0.00  0.00  0.00  1.00  0.00  0.00  0.00  0.00  0.00
  127                     1.00   0.00  0.00  0.00  1.00  0.00  0.00  0.00  0.00  0.00
  128                     1.00   0.00  0.00  0.00  1.00  0.00  0.00  0.00  0.00  0.00
  129                     1.00   0.00  0.00  0.00  1.00  0.00  0.00  0.00  0.00  0.00
  130                     1.00   0.00  0.00  0.00  1.00  0.00  0.00  0.00  0.00  0.00
  131                     1.00   0.00  0.00  0.00  1.00  0.00  0.00  0.00  0.00  0.00
  132                     1.00   0.00  0.00  0.00  1.00  0.00  0.00  0.00  0.00  0.00
  133                     1.00   0.00  0.00  0.00  1.00  0.00  0.00  0.00  0.00  0.00
  134                     1.00   0.00  0.00  0.00  1.00  0.00  0.00  0.00  0.00  0.00
  135                     1.00   0.00  0.00  0.00  1.00  0.00  0.00  0.00  0.00  0.00
  136                     1.00   0.00  0.00  0.00  1.00  0.00  0.00  0.00  0.00  0.00
  137                     1.00   0.00  0.00  0.00  1.00  0.00  0.00  0.00  0.00  0.00
  138                     1.00   0.00  0.00  0.00  1.00  0.00  0.00  0.00  0.00  0.00
  139                     1.00   0.00  0.00  0.00  1.00  0.00  0.00  0.00  0.00  0.00
  140                     1.00   0.00  0.00  0.00  1.00  0.00  0.00  0.00  0.00  0.00
  141                     1.00   0.00  0.00  0.00  1.00  0.00  0.00  0.00  0.00  0.00
  142                     1.00   0.00  0.00  0.00  1.00  0.00  0.00  0.00  0.00  0.00
  143                     1.00   0.00  0.00  0.00  1.00  0.00  0.00  0.00  0.00  0.00
  144                     1.00   0.00  0.00  0.00  1.00  0.00  0.00  0.00  0.00  0.00
  145                     1.00   0.00  0.00  0.00  1.00  0.00  0.00  0.00  0.00  0.00
  146                     1.00   0.00  0.00  0.00  1.00  0.00  0.00  0.00  0.00  0.00
  147                     1.00   0.00  0.00  0.00  1.00  0.00  0.00  0.00  0.00  0.00
  148                     1.00   0.00  0.00  0.00  1.00  0.00  0.00  0.00  0.00  0.00
  149                     1.00   0.00  0.00  0.00  1.00  0.00  0.00  0.00  0.00  0.00
  150                     1.00   0.00  0.00  0.00  1.00  0.00  0.00  0.00  0.00  0.00
  151                     1.00   0.00  0.00  0.00  1.00  0.00  0.00  0.00  0.00  0.00
  152                     1.00   0.00  0.00  0.00  1.00  0.00  0.00  0.00  0.00  0.00
  153                     1.00   0.00  0.00  0.00  1.00  0.00  0.00  0.00  0.00  0.00
  154                     1.00   0.00  0.00  0.00  1.00  0.00  0.00  0.00  0.00  0.00
  155                     1.00   0.00  0.00  0.00  1.00  0.00  0.00  0.00  0.00  0.00
  156                     1.00   0.00  0.00  0.00  1.00  0.00  0.00  0.00  0.00  0.00
  157                     1.00   0.00  0.00  0.00  1.00  0.00  0.00  0.00  0.00  0.00
  158                     1.00   0.00  0.00  0.00  1.00  0.00  0.00  0.00  0.00  0.00
  159                     1.00   0.00  0.00  0.00  1.00  0.00  0.00  0.00  0.00  0.00
  160                     1.00   0.00  0.00  0.00  1.00  0.00  0.00  0.00  0.00  0.00
  161                     1.00   0.00  0.00  0.00  1.00  0.00  0.00  0.00  0.00  0.00
  162                     1.00   0.00  0.00  0.00  1.00  0.00  0.00  0.00  0.00  0.00
  163                     1.00   0.00  0.00  0.00  1.00  0.00  0.00  0.00  0.00  0.00
  164                     1.00   0.00  0.00  0.00  1.00  0.00  0.00  0.00  0.00  0.00
  165                     1.00   0.00  0.00  0.00  1.00  0.00  0.00  0.00  0.00  0.00
  166                     1.00   0.00  0.00  0.00  1.00  0.00  0.00  0.00  0.00  0.00
  167                     1.00   0.00  0.00  0.00  1.00  0.00  0.00  0.00  0.00  0.00
  168                     1.00   0.00  0.00  0.00  1.00  0.00  0.00  0.00  0.00  0.00
  169                     1.00   0.00  0.00  0.00  1.00  0.00  0.00  0.00  0.00  0.00
  170                     1.00   0.00  0.00  0.00  1.00  0.00  0.00  0.00  0.00  0.00
  171                     1.00   0.00  0.00  0.00  1.00  0.00  0.00  0.00  0.00  0.00
  172                     1.00   0.00  0.00  0.00  1.00  0.00  0.00  0.00  0.00  0.00
  173                     1.00   0.00  0.00  0.00  1.00  0.00  0.00  0.00  0.00  0.00
  174                     1.00   0.00  0.00  0.00  1.00  0.00  0.00  0.00  0.00  0.00
  175                     1.00   0.00  0.00  0.00  1.00  0.00  0.00  0.00  0.00  0.00
  176                     1.00   0.00  0.00  0.00  1.00  0.00  0.00  0.00  0.00  0.00
  177                     1.00   0.00  0.00  0.00  1.00  0.00  0.00  0.00  0.00  0.00
  178                     1.00   0.00  0.00  0.00  1.00  0.00  0.00  0.00  0.00  0.00
  179                     1.00   0.00  0.00  0.00  1.00  0.00  0.00  0.00  0.00  0.00
  180                     1.00   0.00  0.00  0.00  1.00  0.00  0.00  0.00  0.00  0.00
  181                     1.00   0.00  0.00  0.00  1.00  0.00  0.00  0.00  0.00  0.00
  182                     1.00   0.00  0.00  0.00  1.00  0.00  0.00  0.00  0.00  0.00
  183                     1.00   0.00  0.00  0.00  1.00  0.00  0.00  0.00  0.00  0.00
  184                     1.00   0.00  0.00  0.00  1.00  0.00  0.00  0.00  0.00  0.00
  185                     1.00   0.00  0.00  0.00  1.00  0.00  0.00  0.00  0.00  0.00
  186                     1.00   0.00  0.00  0.00  1.00  0.00  0.00  0.00  0.00  0.00
  187                     1.00   0.00  0.00  0.00  1.00  0.00  0.00  0.00  0.00  0.00
  188                     1.00   0.00  0.00  0.00  1.00  0.00  0.00  0.00  0.00  0.00
  189                     1.00   0.00  0.00  0.00  1.00  0.00  0.00  0.00  0.00  0.00
  190                     1.00   0.00  0.00  0.00  1.00  0.00  0.00  0.00  0.00  0.00
  191                     1.00   0.00  0.00  0.00  1.00  0.00  0.00  0.00  0.00  0.00
  192                     1.00   0.00  0.00  0.00  1.00  0.00  0.00  0.00  0.00  0.00
  193                     1.00   0.00  0.00  0.00  1.00  0.00  0.00  0.00  0.00  0.00
  194                     1.00   0.00  0.00  0.00  1.00  0.00  0.00  0.00  0.00  0.00
  195                     1.00   0.00  0.00  0.00  1.00  0.00  0.00  0.00  0.00  0.00
  196                     1.00   0.00  0.00  0.00  1.00  0.00  0.00  0.00  0.00  0.00
  197                     1.00   0.00  0.00  0.00  1.00  0.00  0.00  0.00  0.00  0.00
  198                     1.00   0.00  0.00  0.00  1.00  0.00  0.00  0.00  0.00  0.00
  199                     1.00   0.00  0.00  0.00  1.00  0.00  0.00  0.00  0.00  0.00
  200                     1.00   0.00  0.00  0.00  1.00  0.00  0.00  0.00  0.00  0.00
  201                     1.00   0.00  0.00  0.00  1.00  0.00  0.00  0.00  0.00  0.00
  202                     1.00   0.00  0.00  0.00  1.00  0.00  0.00  0.00  0.00  0.00
  203                     1.00   0.00  0.00  0.00  1.00  0.00  0.00  0.00  0.00  0.00
  204                     1.00   0.00  0.00  0.00  1.00  0.00  0.00  0.00  0.00  0.00
  205                     1.00   0.00  0.00  0.00  1.00  0.00  0.00  0.00  0.00  0.00
  206                     1.00   0.00  0.00  0.00  1.00  0.00  0.00  0.00  0.00  0.00
  207                     1.00   0.00  0.00  0.00  1.00  0.00  0.00  0.00  0.00  0.00
  208                     1.00   0.00  0.00  0.00  1.00  0.00  0.00  0.00  0.00  0.00
  209                     1.00   0.00  0.00  0.00  1.00  0.00  0.00  0.00  0.00  0.00
  210                     1.00   0.00  0.00  0.00  1.00  0.00  0.00  0.00  0.00  0.00
  211                     1.00   0.00  0.00  0.00  1.00  0.00  0.00  0.00  0.00  0.00
  212                     1.00   0.00  0.00  0.00  1.00  0.00  0.00  0.00  0.00  0.00
  213                     1.00   0.00  0.00  0.00  1.00  0.00  0.00  0.00  0.00  0.00
  214                     1.00   0.00  0.00  0.00  1.00  0.00  0.00  0.00  0.00  0.00
  215                     1.00   0.00  0.00  0.00  1.00  0.00  0.00  0.00  0.00  0.00
  216                     1.00   0.00  0.00  0.00  1.00  0.00  0.00  0.00  0.00  0.00
  217                     1.00   0.00  0.00  0.00  1.00  0.00  0.00  0.00  0.00  0.00
  218                     1.00   0.00  0.00  0.00  1.00  0.00  0.00  0.00  0.00  0.00
  219                     1.00   0.00  0.00  0.00  1.00  0.00  0.00  0.00  0.00  0.00
  220                     1.00   0.00  0.00  0.00  1.00  0.00  0.00  0.00  0.00  0.00
  221                     1.00   0.00  0.00  0.00  1.00  0.00  0.00  0.00  0.00  0.00
  222                     1.00   0.00  0.00  0.00  1.00  0.00  0.00  0.00  0.00  0.00
  223                     1.00   0.00  0.00  0.00  1.00  0.00  0.00  0.00  0.00  0.00
  224                     1.00   0.00  0.00  0.00  1.00  0.00  0.00  0.00  0.00  0.00
  225                     1.00   0.00  0.00  0.00  1.00  0.00  0.00  0.00  0.00  0.00
  226                     1.00   0.00  0.00  0.00  1.00  0.00  0.00  0.00  0.00  0.00
  227                     1.00   0.00  0.00  0.00  1.00  0.00  0.00  0.00  0.00  0.00
  228                     1.00   0.00  0.00  0.00  1.00  0.00  0.00  0.00  0.00  0.00
  229                     1.00   0.00  0.00  0.00  1.00  0.00  0.00  0.00  0.00  0.00
  230                     1.00   0.00  0.00  0.00  1.00  0.00  0.00  0.00  0.00  0.00
  231                     1.00   0.00  0.00  0.00  1.00  0.00  0.00  0.00  0.00  0.00
  232                     1.00   0.00  0.00  0.00  1.00  0.00  0.00  0.00  0.00  0.00
  233                     1.00   0.00  0.00  0.00  1.00  0.00  0.00  0.00  0.00  0.00
  234                     1.00   0.00  0.00  0.00  1.00  0.00  0.00  0.00  0.00  0.00
  235                     1.00   0.00  0.00  0.00  1.00  0.00  0.00  0.00  0.00  0.00
  236                     1.00   0.00  0.00  0.00  1.00  0.00  0.00  0.00  0.00  0.00
  237                     1.00   0.00  0.00  0.00  1.00  0.00  0.00  0.00  0.00  0.00
  238                     1.00   0.00  0.00  0.00  1.00  0.00  0.00  0.00  0.00  0.00
  239                     1.00   0.00  0.00  0.00  1.00  0.00  0.00  0.00  0.00  0.00
  240                     1.00   0.00  0.00  0.00  1.00  0.00  0.00  0.00  0.00  0.00
  241                     1.00   0.00  0.00  0.00  1.00  0.00  0.00  0.00  0.00  0.00
  242                     1.00   0.00  0.00  0.00  1.00  0.00  0.00  0.00  0.00  0.00
  243                     1.00   0.00  0.00  0.00  1.00  0.00  0.00  0.00  0.00  0.00
  244                     1.00   0.00  0.00  0.00  1.00  0.00  0.00  0.00  0.00  0.00
  245                     1.00   0.00  0.00  0.00  1.00  0.00  0.00  0.00  0.00  0.00
  246                     1.00   0.00  0.00  0.00  1.00  0.00  0.00  0.00  0.00  0.00
  247                     1.00   0.00  0.00  0.00  1.00  0.00  0.00  0.00  0.00  0.00
  248                     1.00   0.00  0.00  0.00  1.00  0.00  0.00  0.00  0.00  0.00
  249                     1.00   0.00  0.00  0.00  1.00  0.00  0.00  0.00  0.00  0.00
  250                     1.00   0.00  0.00  0.00  1.00  0.00  0.00  0.00  0.00  0.00
  251                     1.00   0.00  0.00  0.00  1.00  0.00  0.00  0.00  0.00  0.00
  252                     1.00   0.00  0.00  0.00  1.00  0.00  0.00  0.00  0.00  0.00
  253                     1.00   0.00  0.00  0.00  1.00  0.00  0.00  0.00  0.00  0.00
  254                     1.00   0.00  0.00  0.00  1.00  0.00  0.00  0.00  0.00  0.00
  255                     1.00   0.00  0.00  0.00  1.00  0.00  0.00  0.00  0.00  0.00
  256                     1.00   0.00  0.00  0.00  1.00  0.00  0.00  0.00  0.00  0.00
  257                     1.00   0.00  0.00  0.00  1.00  0.00  0.00  0.00  0.00  0.00
  258                     1.00   0.00  0.00  0.00  1.00  0.00  0.00  0.00  0.00  0.00
  259                     1.00   0.00  0.00  0.00  1.00  0.00  0.00  0.00  0.00  0.00
  260                     1.00   0.00  0.00  0.00  1.00  0.00  0.00  0.00  0.00  0.00
  261                     1.00   0.00  0.00  0.00  1.00  0.00  0.00  0.00  0.00  0.00
  262                     1.00   0.00  0.00  0.00  1.00  0.00  0.00  0.00  0.00  0.00
  263                     1.00   0.00  0.00  0.00  1.00  0.00  0.00  0.00  0.00  0.00
  264                     1.00   0.00  0.00  0.00  1.00  0.00  0.00  0.00  0.00  0.00
  265                     1.00   0.00  0.00  0.00  1.00  0.00  0.00  0.00  0.00  0.00
  266                     1.00   0.00  0.00  0.00  1.00  0.00  0.00  0.00  0.00  0.00
  267                     1.00   0.00  0.00  0.00  1.00  0.00  0.00  0.00  0.00  0.00
  268                     1.00   0.00  0.00  0.00  1.00  0.00  0.00  0.00  0.00  0.00
  269                     1.00   0.00  0.00  0.00  1.00  0.00  0.00  0.00  0.00  0.00
  270                     1.00   0.00  0.00  0.00  1.00  0.00  0.00  0.00  0.00  0.00
  271                     1.00   0.00  0.00  0.00  1.00  0.00  0.00  0.00  0.00  0.00
  272                     1.00   0.00  0.00  0.00  1.00  0.00  0.00  0.00  0.00  0.00
  273                     1.00   0.00  0.00  0.00  1.00  0.00  0.00  0.00  0.00  0.00
  274                     1.00   0.00  0.00  0.00  1.00  0.00  0.00  0.00  0.00  0.00
  275                     1.00   0.00  0.00  0.00  1.00  0.00  0.00  0.00  0.00  0.00
  276                     1.00   0.00  0.00  0.00  1.00  0.00  0.00  0.00  0.00  0.00
  277                     1.00   0.00  0.00  0.00  1.00  0.00  0.00  0.00  0.00  0.00
  278                     1.00   0.00  0.00  0.00  1.00  0.00  0.00  0.00  0.00  0.00
  279                     1.00   0.00  0.00  0.00  1.00  0.00  0.00  0.00  0.00  0.00
  280                     1.00   0.00  0.00  0.00  1.00  0.00  0.00  0.00  0.00  0.00
  281                     1.00   0.00  0.00  0.00  1.00  0.00  0.00  0.00  0.00  0.00
  282                     1.00   0.00  0.00  0.00  1.00  0.00  0.00  0.00  0.00  0.00
  283                     1.00   0.00  0.00  0.00  1.00  0.00  0.00  0.00  0.00  0.00
  284                     1.00   0.00  0.00  0.00  1.00  0.00  0.00  0.00  0.00  0.00
  285                     1.00   0.00  0.00  0.00  1.00  0.00  0.00  0.00  0.00  0.00
  286                     1.00   0.00  0.00  0.00  1.00  0.00  0.00  0.00  0.00  0.00
  287                     1.00   0.00  0.00  0.00  1.00  0.00  0.00  0.00  0.00  0.00
  288                     1.00   0.00  0.00  0.00  1.00  0.00  0.00  0.00  0.00  0.00
  289                     1.00   0.00  0.00  0.00  1.00  0.00  0.00  0.00  0.00  0.00
  290                     1.00   0.00  0.00  0.00  1.00  0.00  0.00  0.00  0.00  0.00
  291                     1.00   0.00  0.00  0.00  1.00  0.00  0.00  0.00  0.00  0.00
  292                     1.00   0.00  0.00  0.00  1.00  0.00  0.00  0.00  0.00  0.00
  293                     1.00   0.00  0.00  0.00  1.00  0.00  0.00  0.00  0.00  0.00
  294                     1.00   0.00  0.00  0.00  1.00  0.00  0.00  0.00  0.00  0.00
  295                     1.00   0.00  0.00  0.00  1.00  0.00  0.00  0.00  0.00  0.00
  296                     1.00   0.00  0.00  0.00  1.00  0.00  0.00  0.00  0.00  0.00
  297                     1.00   0.00  0.00  0.00  1.00  0.00  0.00  0.00  0.00  0.00
  298                     1.00   0.00  0.00  0.00  1.00  0.00  0.00  0.00  0.00  0.00
  299                     1.00   0.00  0.00  0.00  1.00  0.00  0.00  0.00  0.00  0.00
  300                     1.00   0.00  0.00  0.00  1.00  0.00  0.00  0.00  0.00  0.00
  301                     1.00   0.00  0.00  0.00  1.00  0.00  0.00  0.00  0.00  0.00
  302                     1.00   0.00  0.00  0.00  1.00  0.00  0.00  0.00  0.00  0.00
  303                     1.00   0.00  0.00  0.00  1.00  0.00  0.00  0.00  0.00  0.00
  304                     1.00   0.00  0.00  0.00  1.00  0.00  0.00  0.00  0.00  0.00
  305                     1.00   0.00  0.00  0.00  1.00  0.00  0.00  0.00  0.00  0.00
  306                     1.00   0.00  0.00  0.00  1.00  0.00  0.00  0.00  0.00  0.00
  307                     1.00   0.00  0.00  0.00  1.00  0.00  0.00  0.00  0.00  0.00
  308                     1.00   0.00  0.00  0.00  1.00  0.00  0.00  0.00  0.00  0.00
  309                     1.00   0.00  0.00  0.00  1.00  0.00  0.00  0.00  0.00  0.00
  310                     1.00   0.00  0.00  0.00  1.00  0.00  0.00  0.00  0.00  0.00
  311                     1.00   0.00  0.00  0.00  1.00  0.00  0.00  0.00  0.00  0.00
  312                     1.00   0.00  0.00  0.00  1.00  0.00  0.00  0.00  0.00  0.00
  313                     1.00   0.00  0.00  0.00  1.00  0.00  0.00  0.00  0.00  0.00
  314                     1.00   0.00  0.00  0.00  1.00  0.00  0.00  0.00  0.00  0.00
  315                     1.00   0.00  0.00  0.00  1.00  0.00  0.00  0.00  0.00  0.00
  316                     1.00   0.00  0.00  0.00  1.00  0.00  0.00  0.00  0.00  0.00
  317                     1.00   0.00  0.00  0.00  1.00  0.00  0.00  0.00  0.00  0.00
  318                     1.00   0.00  0.00  0.00  1.00  0.00  0.00  0.00  0.00  0.00
  319                     1.00   0.00  0.00  0.00  1.00  0.00  0.00  0.00  0.00  0.00
  320                     1.00   0.00  0.00  0.00  1.00  0.00  0.00  0.00  0.00  0.00
  321                     1.00   0.00  0.00  0.00  1.00  0.00  0.00  0.00  0.00  0.00
  322                     1.00   0.00  0.00  0.00  1.00  0.00  0.00  0.00  0.00  0.00
  323                     1.00   0.00  0.00  0.00  1.00  0.00  0.00  0.00  0.00  0.00
  324                     1.00   0.00  0.00  0.00  1.00  0.00  0.00  0.00  0.00  0.00
  325                     1.00   0.00  0.00  0.00  1.00  0.00  0.00  0.00  0.00  0.00
  326                     1.00   0.00  0.00  0.00  1.00  0.00  0.00  0.00  0.00  0.00
  327                     1.00   0.00  0.00  0.00  1.00  0.00  0.00  0.00  0.00  0.00
  328                     1.00   0.00  0.00  0.00  1.00  0.00  0.00  0.00  0.00  0.00
  329                     1.00   0.00  0.00  0.00  1.00  0.00  0.00  0.00  0.00  0.00
  330                     1.00   0.00  0.00  0.00  1.00  0.00  0.00  0.00  0.00  0.00
  331                     1.00   0.00  0.00  0.00  1.00  0.00  0.00  0.00  0.00  0.00
  332                     1.00   0.00  0.00  0.00  1.00  0.00  0.00  0.00  0.00  0.00
  333                     1.00   0.00  0.00  0.00  1.00  0.00  0.00  0.00  0.00  0.00
  334                     1.00   0.00  0.00  0.00  1.00  0.00  0.00  0.00  0.00  0.00
  335                     1.00   0.00  0.00  0.00  1.00  0.00  0.00  0.00  0.00  0.00
  336                     1.00   0.00  0.00  0.00  1.00  0.00  0.00  0.00  0.00  0.00
  337                     1.00   0.00  0.00  0.00  1.00  0.00  0.00  0.00  0.00  0.00
  338                     1.00   0.00  0.00  0.00  1.00  0.00  0.00  0.00  0.00  0.00
  339                     1.00   0.00  0.00  0.00  1.00  0.00  0.00  0.00  0.00  0.00
  340                     1.00   0.00  0.00  0.00  1.00  0.00  0.00  0.00  0.00  0.00
  341                     1.00   0.00  0.00  0.00  1.00  0.00  0.00  0.00  0.00  0.00
  
  
  *************************
  Conduit Surcharge Summary
  *************************
  
  ----------------------------------------------------------------------------
                                                           Hours        Hours 
                         --------- Hours Full --------   Above Full   Capacity
  Conduit                Both Ends  Upstream  Dnstream   Normal Flow   Limited
  ----------------------------------------------------------------------------
  121                         2.99      2.99      3.00      0.01         0.01
  122                         3.00      3.00      3.02      0.01         0.01
  123                         3.02      3.02      3.03      0.01         0.01
  124                         3.03      3.03      3.04      0.01         0.01
  125                         3.04      3.04      3.05      0.01         0.01
  126                         3.05      3.05      3.06      0.01         0.01
  127                         3.06      3.06      3.07      0.01         0.01
  128                         3.07      3.07      3.08      0.01         0.01
  129                         3.08      3.08      3.09      0.01         0.01
  130                         3.09      3.09      3.11      0.01         0.01
  131                         3.00      3.00      3.02      0.01         0.01
  132                         3.02      3.02      3.03      0.01         0.01
  133                         3.03      3.03      3.04      0.01         0.01
  134                         3.04      3.04      3.05      0.01         0.01
  135                         3.05      3.05      3.06      0.01         0.01
  136                         3.06      3.06      3.07      0.01         0.01
  137                         3.07      3.07      3.08      0.01         0.01
  138                         3.08      3.08      3.09      0.01         0.01
  139                         3.09      3.09      3.11      0.01         0.01
  140                         3.11      3.11      3.13      0.01         0.01
  141                         3.02      3.02      3.03      0.01         0.01
  142                         3.03      3.03      3.04      0.01         0.01
  143                         3.04      3.04      3.05      0.01         0.01
  144                         3.05      3.05      3.06      0.01         0.01
  145                         3.06      3.06      3.07      0.01         0.01
  146                         3.07      3.07      3.08      0.01         0.01
  147                         3.08      3.08      3.09      0.01         0.01
  148                         3.09      3.09      3.11      0.01         0.01
  149                         3.11      3.11      3.12      0.01         0.01
  150                         3.12      3.12      3.14      0.01         0.01
  151                         3.03      3.03      3.04      0.01         0.01
  152                         3.04      3.04      3.05      0.01         0.01
  153                         3.05      3.05      3.06      0.01         0.01
  154                         3.06      3.06      3.07      0.01         0.01
  155                         3.07      3.07      3.08      0.01         0.01
  156                         3.08      3.08      3.09      0.01         0.01
  157                         3.09      3.09      3.11      0.01         0.01
  158                         3.11      3.11      3.12      0.01         0.01
  159                         3.12      3.12      3.14      0.01         0.01
  160                         3.14      3.14      3.16      0.01         0.01
  161                         3.04      3.04      3.05      0.01         0.01
  162                         3.05      3.05      3.06      0.01         0.01
  163                         3.06      3.06      3.07      0.01         0.01
  164                         3.07      3.07      3.08      0.01         0.01
  165                         3.08      3.08      3.09      0.01         0.01
  166                         3.09      3.09      3.11      0.01         0.01
  167                         3.11      3.11      3.12      0.01         0.01
  168                         3.12      3.12      3.14      0.01         0.01
  169                         3.14      3.14      3.16      0.01         0.01
  170                         3.16      3.16      3.18      0.01         0.01
  171                         3.05      3.05      3.06      0.01         0.01
  172                         3.06      3.06      3.07      0.01         0.01
  173                         3.07      3.07      3.08      0.01         0.01
  174                         3.08      3.08      3.09      0.01         0.01
  175                         3.09      3.09      3.11      0.01         0.01
  176                         3.11      3.11      3.12      0.01         0.01
  177                         3.12      3.12      3.14      0.01         0.01
  178                         3.14      3.14      3.16      0.01         0.01
  179                         3.16      3.16      3.18      0.01         0.01
  180                         3.18      3.18      3.20      0.01         0.01
  181                         3.06      3.06      3.07      0.01         0.01
  182                         3.07      3.07      3.08      0.01         0.01
  183                         3.08      3.08      3.09      0.01         0.01
  184                         3.09      3.09      3.11      0.01         0.01
  185                         3.11      3.11      3.12      0.01         0.01
  186                         3.12      3.12      3.14      0.01         0.01
  187                         3.14      3.14      3.16      0.01         0.01
  188                         3.16      3.16      3.17      0.01         0.01
  189                         3.17      3.17      3.20      0.01         0.01
  190                         3.20      3.20      3.22      0.01         0.01
  191                         3.07      3.07      3.08      0.01         0.01
  192                         3.08      3.08      3.09      0.01         0.01
  193                         3.09      3.09      3.11      0.01         0.01
  194                         3.11      3.11      3.12      0.01         0.01
  195                         3.12      3.12      3.14      0.01         0.01
  196                         3.14      3.14      3.16      0.01         0.01
  197                         3.16      3.16      3.17      0.01         0.01
  198                         3.17      3.17      3.19      0.01         0.01
  199                         3.19      3.19      3.21      0.01         0.01
  200                         3.21      3.21      3.24      0.01         0.01
  201                         3.08      3.08      3.09      0.01         0.01
  202                         3.09      3.09      3.11      0.01         0.01
  203                         3.11      3.11      3.12      0.01         0.01
  204                         3.12      3.12      3.14      0.01         0.01
  205                         3.14      3.14      3.16      0.01         0.01
  206                         3.16      3.16      3.17      0.01         0.01
  207                         3.17      3.17      3.19      2.59         2.62
  208                         3.19      3.19      3.21      2.66         2.69
  209                         3.21      3.21      3.22      2.69         2.71
  210                         3.22      3.22      3.25      0.01         0.01
  211                         3.09      3.09      3.11      0.01         0.01
  212                         3.11      3.11      3.12      0.01         0.01
  213                         3.12      3.12      3.14      0.01         0.01
  214                         3.14      3.14      3.16      0.01         0.01
  215                         3.16      3.16      3.18      0.01         0.01
  216                         3.18      3.18      3.20      0.01         0.01
  217                         3.20      3.20      3.21      2.66         2.68
  218                         3.21      3.21      3.22      2.93         2.94
  219                         3.22      3.22      3.22      3.19         3.22
  220                         3.22      3.22      3.22      3.27         3.22
  221                         3.11      3.11      3.13      0.01         0.01
  222                         3.13      3.13      3.14      0.01         0.01
  223                         3.14      3.14      3.16      0.01         0.01
  224                         3.16      3.16      3.18      0.01         0.01
  225                         3.18      3.18      3.20      0.01         0.01
  226                         3.20      3.20      3.22      2.32         0.01
  227                         3.22      3.22      3.24      2.69         2.71
  228                         3.24      3.24      3.25      3.03         3.06
  229                         3.22      3.25      3.22      3.83         3.24
  230                         3.09      3.22      3.09      4.63         3.16
  231                         3.11      3.11      3.13      0.01         0.01
  232                         3.13      3.13      3.14      0.01         0.01
  233                         3.14      3.14      3.16      0.01         0.01
  234                         3.16      3.16      3.18      0.01         0.01
  235                         3.18      3.18      3.20      0.01         0.01
  236                         3.20      3.20      3.22      2.32         0.01
  237                         3.22      3.22      3.24      2.69         2.71
  238                         3.24      3.24      3.25      3.03         3.06
  239                         3.22      3.25      3.22      3.83         3.24
  240                         3.09      3.22      3.09      4.63         3.16
  241                         0.01      3.09      0.01      5.71         2.75
  242                         2.99      2.99      3.00      0.01         0.01
  243                         3.00      3.00      3.02      0.01         0.01
  244                         3.02      3.02      3.03      0.01         0.01
  245                         3.03      3.03      3.04      0.01         0.01
  246                         3.04      3.04      3.05      0.01         0.01
  247                         3.05      3.05      3.06      0.01         0.01
  248                         3.06      3.06      3.07      0.01         0.01
  249                         3.07      3.07      3.08      0.01         0.01
  250                         3.08      3.08      3.09      0.01         0.01
  251                         3.09      3.09      3.11      0.01         0.01
  252                         3.00      3.00      3.02      0.01         0.01
  253                         3.02      3.02      3.03      0.01         0.01
  254                         3.03      3.03      3.04      0.01         0.01
  255                         3.04      3.04      3.05      0.01         0.01
  256                         3.05      3.05      3.06      0.01         0.01
  257                         3.06      3.06      3.07      0.01         0.01
  258                         3.07      3.07      3.08      0.01         0.01
  259                         3.08      3.08      3.09      0.01         0.01
  260                         3.09      3.09      3.11      0.01         0.01
  261                         3.11      3.11      3.13      0.01         0.01
  262                         3.02      3.02      3.03      0.01         0.01
  263                         3.03      3.03      3.04      0.01         0.01
  264                         3.04      3.04      3.05      0.01         0.01
  265                         3.05      3.05      3.06      0.01         0.01
  266                         3.06      3.06      3.07      0.01         0.01
  267                         3.07      3.07      3.08      0.01         0.01
  268                         3.08      3.08      3.09      0.01         0.01
  269                         3.09      3.09      3.11      0.01         0.01
  270                         3.11      3.11      3.12      0.01         0.01
  271                         3.12      3.12      3.14      0.01         0.01
  272                         3.03      3.03      3.04      0.01         0.01
  273                         3.04      3.04      3.05      0.01         0.01
  274                         3.05      3.05      3.06      0.01         0.01
  275                         3.06      3.06      3.07      0.01         0.01
  276                         3.07      3.07      3.08      0.01         0.01
  277                         3.08      3.08      3.09      0.01         0.01
  278                         3.09      3.09      3.11      0.01         0.01
  279                         3.11      3.11      3.12      0.01         0.01
  280                         3.12      3.12      3.14      0.01         0.01
  281                         3.14      3.14      3.16      0.01         0.01
  282                         3.04      3.04      3.05      0.01         0.01
  283                         3.05      3.05      3.06      0.01         0.01
  284                         3.06      3.06      3.07      0.01         0.01
  285                         3.07      3.07      3.08      0.01         0.01
  286                         3.08      3.08      3.09      0.01         0.01
  287                         3.09      3.09      3.11      0.01         0.01
  288                         3.11      3.11      3.12      0.01         0.01
  289                         3.12      3.12      3.14      0.01         0.01
  290                         3.14      3.14      3.16      0.01         0.01
  291                         3.16      3.16      3.18      0.01         0.01
  292                         3.05      3.05      3.06      0.01         0.01
  293                         3.06      3.06      3.07      0.01         0.01
  294                         3.07      3.07      3.08      0.01         0.01
  295                         3.08      3.08      3.09      0.01         0.01
  296                         3.09      3.09      3.11      0.01         0.01
  297                         3.11      3.11      3.12      0.01         0.01
  298                         3.12      3.12      3.14      0.01         0.01
  299                         3.14      3.14      3.16      0.01         0.01
  300                         3.16      3.16      3.18      0.01         0.01
  301                         3.18      3.18      3.20      0.01         0.01
  302                         3.06      3.06      3.07      0.01         0.01
  303                         3.07      3.07      3.08      0.01         0.01
  304                         3.08      3.08      3.09      0.01         0.01
  305                         3.09      3.09      3.11      0.01         0.01
  306                         3.11      3.11      3.12      0.01         0.01
  307                         3.12      3.12      3.14      0.01         0.01
  308                         3.14      3.14      3.16      0.01         0.01
  309                         3.16      3.16      3.17      0.01         0.01
  310                         3.17      3.17      3.20      0.01         0.01
  311                         3.20      3.20      3.22      0.01         0.01
  312                         3.07      3.07      3.08      0.01         0.01
  313                         3.08      3.08      3.09      0.01         0.01
  314                         3.09      3.09      3.11      0.01         0.01
  315                         3.11      3.11      3.12      0.01         0.01
  316                         3.12      3.12      3.14      0.01         0.01
  317                         3.14      3.14      3.16      0.01         0.01
  318                         3.16      3.16      3.17      0.01         0.01
  319                         3.17      3.17      3.19      0.01         0.01
  320                         3.19      3.19      3.21      0.01         0.01
  321                         3.21      3.21      3.24      0.01         0.01
  322                         3.08      3.08      3.09      0.01         0.01
  323                         3.09      3.09      3.11      0.01         0.01
  324                         3.11      3.11      3.12      0.01         0.01
  325                         3.12      3.12      3.14      0.01         0.01
  326                         3.14      3.14      3.16      0.01         0.01
  327                         3.16      3.16      3.17      0.01         0.01
  328                         3.17      3.17      3.19      2.59         2.62
  329                         3.19      3.19      3.21      2.66         2.69
  330                         3.21      3.21      3.22      2.69         2.71
  331                         3.22      3.22      3.25      0.01         0.01
  332                         3.09      3.09      3.11      0.01         0.01
  333                         3.11      3.11      3.12      0.01         0.01
  334                         3.12      3.12      3.14      0.01         0.01
  335                         3.14      3.14      3.16      0.01         0.01
  336                         3.16      3.16      3.18      0.01         0.01
  337                         3.18      3.18      3.20      0.01         0.01
  338                         3.20      3.20      3.21      2.66         2.68
  339                         3.21      3.21      3.22      2.93         2.94
  340                         3.22      3.22      3.22      3.19         3.22
  341                         3.22      3.22      3.22      3.27         3.22
  

  Analysis begun on:  Sat Jan 28 15:56:47 2023
  Analysis ended on:  Sat Jan 28 15:56:49 2023
  Total elapsed time: 00:00:02