
  EPA STORM WATER MANAGEMENT MODEL - VERSION 5.1 (Build 5.1.015)
  --------------------------------------------------------------

  WARNING 04: minimum elevation drop used for Conduit 241
  
  *********************************************************
  NOTE: The summary statistics displayed in this report are
  based on results found at every computational time step,  
  not just on results from each reporting time step.
  *********************************************************
  
  ****************
  Analysis Options
  ****************
  Flow Units ............... CMS
  Process Models:
    Rainfall/Runoff ........ NO
    RDII ................... NO
    Snowmelt ............... NO
    Groundwater ............ NO
    Flow Routing ........... YES
    Ponding Allowed ........ NO
    Water Quality .......... NO
  Flow Routing Method ...... DYNWAVE
  Surcharge Method ......... SLOT
  Starting Date ............ 10/31/2022 00:00:00
  Ending Date .............. 10/31/2022 06:00:00
  Antecedent Dry Days ...... 0.0
  Report Time Step ......... 00:00:10
  Routing Time Step ........ 1.00 sec
  Variable Time Step ....... NO
  Maximum Trials ........... 8
  Number of Threads ........ 6
  Head Tolerance ........... 0.001500 m
  
  
  **************************        Volume        Volume
  Flow Routing Continuity        hectare-m      10^6 ltr
  **************************     ---------     ---------
  Dry Weather Inflow .......         0.000         0.000
  Wet Weather Inflow .......         0.000         0.000
  Groundwater Inflow .......         0.000         0.000
  RDII Inflow ..............         0.000         0.000
  External Inflow ..........         4.541        45.406
  External Outflow .........         2.677        26.766
  Flooding Loss ............         0.000         0.000
  Evaporation Loss .........         0.000         0.000
  Exfiltration Loss ........         0.000         0.000
  Initial Stored Volume ....         0.000         0.000
  Final Stored Volume ......         1.759        17.589
  Continuity Error (%) .....         2.314
  
  
  *************************
  Highest Continuity Errors
  *************************
  Node B00 (24.00%)
  Node A01 (24.00%)
  Node B01 (23.15%)
  Node A09 (22.36%)
  Node J00 (22.36%)
  
  
  ********************************
  Highest Flow Instability Indexes
  ********************************
  All links are stable.
  
  
  *************************
  Routing Time Step Summary
  *************************
  Minimum Time Step           :     1.00 sec
  Average Time Step           :     1.00 sec
  Maximum Time Step           :     1.00 sec
  Percent in Steady State     :     0.00
  Average Iterations per Step :     2.00
  Percent Not Converging      :     0.00
  
  
  ******************
  Node Depth Summary
  ******************
  
  ---------------------------------------------------------------------------------
                                 Average  Maximum  Maximum  Time of Max    Reported
                                   Depth    Depth      HGL   Occurrence   Max Depth
  Node                 Type       Meters   Meters   Meters  days hr:min      Meters
  ---------------------------------------------------------------------------------
  A00                  JUNCTION     0.49     1.46     2.46     0  05:59        1.46
  A01                  JUNCTION     0.53     1.51     2.46     0  06:00        1.51
  A02                  JUNCTION     0.57     1.56     2.46     0  05:59        1.56
  A03                  JUNCTION     0.61     1.61     2.46     0  06:00        1.61
  A04                  JUNCTION     0.65     1.66     2.46     0  06:00        1.66
  A05                  JUNCTION     0.69     1.71     2.46     0  06:00        1.71
  A06                  JUNCTION     0.73     1.76     2.46     0  06:00        1.76
  A07                  JUNCTION     0.78     1.81     2.46     0  06:00        1.81
  A08                  JUNCTION     0.82     1.86     2.46     0  05:59        1.86
  A09                  JUNCTION     0.87     1.91     2.46     0  06:00        1.91
  A10                  JUNCTION     0.91     1.96     2.46     0  06:00        1.96
  B00                  JUNCTION     0.53     1.51     2.46     0  06:00        1.51
  B01                  JUNCTION     0.58     1.56     2.46     0  06:00        1.56
  B02                  JUNCTION     0.62     1.61     2.46     0  05:59        1.61
  B03                  JUNCTION     0.66     1.66     2.46     0  06:00        1.66
  B04                  JUNCTION     0.70     1.71     2.46     0  06:00        1.71
  B05                  JUNCTION     0.74     1.76     2.46     0  06:00        1.76
  B06                  JUNCTION     0.78     1.81     2.46     0  06:00        1.81
  B07                  JUNCTION     0.82     1.86     2.46     0  06:00        1.86
  B08                  JUNCTION     0.87     1.91     2.46     0  05:59        1.91
  B09                  JUNCTION     0.91     1.96     2.46     0  06:00        1.96
  B10                  JUNCTION     0.96     2.01     2.46     0  06:00        2.01
  C00                  JUNCTION     0.57     1.56     2.46     0  05:59        1.56
  C01                  JUNCTION     0.62     1.61     2.46     0  05:59        1.61
  C02                  JUNCTION     0.66     1.66     2.46     0  06:00        1.66
  C03                  JUNCTION     0.70     1.71     2.46     0  06:00        1.71
  C04                  JUNCTION     0.74     1.76     2.46     0  06:00        1.76
  C05                  JUNCTION     0.78     1.81     2.46     0  06:00        1.81
  C06                  JUNCTION     0.82     1.86     2.46     0  06:00        1.86
  C07                  JUNCTION     0.87     1.90     2.45     0  06:00        1.90
  C08                  JUNCTION     0.91     1.95     2.45     0  06:00        1.95
  C09                  JUNCTION     0.96     2.00     2.45     0  06:00        2.00
  C10                  JUNCTION     1.01     2.05     2.45     0  06:00        2.05
  D00                  JUNCTION     0.61     1.61     2.46     0  06:00        1.61
  D01                  JUNCTION     0.66     1.66     2.46     0  06:00        1.66
  D02                  JUNCTION     0.70     1.71     2.46     0  06:00        1.71
  D03                  JUNCTION     0.74     1.76     2.46     0  06:00        1.76
  D04                  JUNCTION     0.78     1.81     2.46     0  06:00        1.81
  D05                  JUNCTION     0.83     1.85     2.45     0  06:00        1.85
  D06                  JUNCTION     0.87     1.90     2.45     0  06:00        1.90
  D07                  JUNCTION     0.91     1.95     2.45     0  06:00        1.95
  D08                  JUNCTION     0.96     2.00     2.45     0  06:00        2.00
  D09                  JUNCTION     1.00     2.05     2.45     0  06:00        2.05
  D10                  JUNCTION     1.05     2.10     2.45     0  05:59        2.10
  E00                  JUNCTION     0.65     1.66     2.46     0  06:00        1.66
  E01                  JUNCTION     0.70     1.71     2.46     0  06:00        1.71
  E02                  JUNCTION     0.74     1.76     2.46     0  06:00        1.76
  E03                  JUNCTION     0.78     1.81     2.46     0  06:00        1.81
  E04                  JUNCTION     0.83     1.85     2.45     0  06:00        1.85
  E05                  JUNCTION     0.87     1.90     2.45     0  06:00        1.90
  E06                  JUNCTION     0.91     1.95     2.45     0  06:00        1.95
  E07                  JUNCTION     0.96     2.00     2.45     0  06:00        2.00
  E08                  JUNCTION     1.00     2.05     2.45     0  06:00        2.05
  E09                  JUNCTION     1.05     2.10     2.45     0  06:00        2.10
  E10                  JUNCTION     1.10     2.15     2.45     0  05:59        2.15
  F00                  JUNCTION     0.69     1.71     2.46     0  06:00        1.71
  F01                  JUNCTION     0.74     1.76     2.46     0  06:00        1.76
  F02                  JUNCTION     0.78     1.81     2.46     0  06:00        1.81
  F03                  JUNCTION     0.83     1.85     2.45     0  06:00        1.85
  F04                  JUNCTION     0.87     1.90     2.45     0  06:00        1.90
  F05                  JUNCTION     0.91     1.95     2.45     0  06:00        1.95
  F06                  JUNCTION     0.96     2.00     2.45     0  06:00        2.00
  F07                  JUNCTION     1.00     2.05     2.45     0  05:59        2.05
  F08                  JUNCTION     1.04     2.10     2.45     0  06:00        2.10
  F09                  JUNCTION     1.09     2.14     2.44     0  06:00        2.14
  F10                  JUNCTION     1.14     2.19     2.44     0  05:59        2.19
  G00                  JUNCTION     0.73     1.76     2.46     0  06:00        1.76
  G01                  JUNCTION     0.78     1.81     2.46     0  06:00        1.81
  G02                  JUNCTION     0.82     1.86     2.46     0  06:00        1.86
  G03                  JUNCTION     0.87     1.90     2.45     0  06:00        1.90
  G04                  JUNCTION     0.91     1.95     2.45     0  06:00        1.95
  G05                  JUNCTION     0.96     2.00     2.45     0  06:00        2.00
  G06                  JUNCTION     1.00     2.05     2.45     0  05:59        2.05
  G07                  JUNCTION     1.04     2.09     2.44     0  05:59        2.09
  G08                  JUNCTION     1.09     2.14     2.44     0  06:00        2.14
  G09                  JUNCTION     1.13     2.19     2.44     0  06:00        2.19
  G10                  JUNCTION     1.18     2.23     2.43     0  06:00        2.23
  H00                  JUNCTION     0.78     1.81     2.46     0  06:00        1.81
  H01                  JUNCTION     0.82     1.86     2.46     0  06:00        1.86
  H02                  JUNCTION     0.87     1.90     2.45     0  06:00        1.90
  H03                  JUNCTION     0.91     1.95     2.45     0  06:00        1.95
  H04                  JUNCTION     0.96     2.00     2.45     0  06:00        2.00
  H05                  JUNCTION     1.00     2.05     2.45     0  05:59        2.05
  H06                  JUNCTION     1.04     2.09     2.44     0  05:59        2.09
  H07                  JUNCTION     1.08     2.13     2.43     0  06:00        2.13
  H08                  JUNCTION     1.13     2.18     2.43     0  06:00        2.18
  H09                  JUNCTION     1.17     2.22     2.42     0  06:00        2.22
  H10                  JUNCTION     1.22     2.27     2.42     0  06:00        2.27
  I00                  JUNCTION     0.82     1.86     2.46     0  05:59        1.86
  I01                  JUNCTION     0.87     1.91     2.46     0  05:59        1.91
  I02                  JUNCTION     0.91     1.95     2.45     0  06:00        1.95
  I03                  JUNCTION     0.96     2.00     2.45     0  06:00        2.00
  I04                  JUNCTION     1.00     2.05     2.45     0  06:00        2.05
  I05                  JUNCTION     1.04     2.10     2.45     0  06:00        2.10
  I06                  JUNCTION     1.09     2.14     2.44     0  06:00        2.14
  I07                  JUNCTION     1.13     2.18     2.43     0  06:00        2.18
  I08                  JUNCTION     1.17     2.21     2.41     0  06:00        2.21
  I09                  JUNCTION     1.21     2.24     2.39     0  06:00        2.24
  I10                  JUNCTION     1.25     2.28     2.38     0  06:00        2.28
  J00                  JUNCTION     0.87     1.91     2.46     0  06:00        1.91
  J01                  JUNCTION     0.91     1.96     2.46     0  06:00        1.96
  J02                  JUNCTION     0.96     2.00     2.45     0  06:00        2.00
  J03                  JUNCTION     1.00     2.05     2.45     0  06:00        2.05
  J04                  JUNCTION     1.05     2.10     2.45     0  06:00        2.10
  J05                  JUNCTION     1.09     2.14     2.44     0  06:00        2.14
  J06                  JUNCTION     1.13     2.19     2.44     0  06:00        2.19
  J07                  JUNCTION     1.17     2.22     2.42     0  06:00        2.22
  J08                  JUNCTION     1.21     2.24     2.39     0  06:00        2.24
  J09                  JUNCTION     1.23     2.24     2.34     0  06:00        2.24
  J10                  JUNCTION     1.26     2.24     2.29     0  06:00        2.24
  K00                  JUNCTION     0.91     1.96     2.46     0  06:00        1.96
  K01                  JUNCTION     0.96     2.01     2.46     0  06:00        2.01
  K02                  JUNCTION     1.01     2.05     2.45     0  06:00        2.05
  K03                  JUNCTION     1.05     2.10     2.45     0  05:59        2.10
  K04                  JUNCTION     1.10     2.15     2.45     0  05:59        2.15
  K05                  JUNCTION     1.14     2.19     2.44     0  05:59        2.19
  K06                  JUNCTION     1.18     2.23     2.43     0  06:00        2.23
  K07                  JUNCTION     1.22     2.27     2.42     0  06:00        2.27
  K08                  JUNCTION     1.25     2.28     2.38     0  06:00        2.28
  K09                  JUNCTION     1.26     2.24     2.29     0  06:00        2.24
  K10                  JUNCTION     1.20     2.01     2.01     0  06:00        2.01
  Outfall              OUTFALL      0.61     0.83     0.83     0  06:00        0.83
  
  
  *******************
  Node Inflow Summary
  *******************
  
  -------------------------------------------------------------------------------------------------
                                  Maximum  Maximum                  Lateral       Total        Flow
                                  Lateral    Total  Time of Max      Inflow      Inflow     Balance
                                   Inflow   Inflow   Occurrence      Volume      Volume       Error
  Node                 Type           CMS      CMS  days hr:min    10^6 ltr    10^6 ltr     Percent
  -------------------------------------------------------------------------------------------------
  A00                  JUNCTION     0.017    0.017     0  00:00       0.375       0.375      28.282
  A01                  JUNCTION     0.017    0.026     0  05:27       0.375       0.522      31.576
  A02                  JUNCTION     0.017    0.034     0  05:59       0.375       0.598      26.562
  A03                  JUNCTION     0.017    0.042     0  06:00       0.375       0.656      23.704
  A04                  JUNCTION     0.017    0.047     0  06:00       0.375       0.695      22.099
  A05                  JUNCTION     0.017    0.049     0  06:00       0.375       0.713      21.440
  A06                  JUNCTION     0.017    0.048     0  05:59       0.375       0.709      21.623
  A07                  JUNCTION     0.017    0.045     0  05:59       0.375       0.682      22.699
  A08                  JUNCTION     0.017    0.041     0  00:44       0.375       0.633      24.888
  A09                  JUNCTION     0.017    0.038     0  00:40       0.375       0.565      28.805
  A10                  JUNCTION     0.017    0.030     0  00:37       0.375       0.468      21.974
  B00                  JUNCTION     0.017    0.026     0  05:27       0.375       0.522      31.576
  B01                  JUNCTION     0.017    0.041     0  00:58       0.375       0.725      30.115
  B02                  JUNCTION     0.017    0.052     0  00:57       0.375       0.847      24.763
  B03                  JUNCTION     0.017    0.059     0  00:55       0.375       0.942      21.770
  B04                  JUNCTION     0.017    0.064     0  00:52       0.375        1.01      19.989
  B05                  JUNCTION     0.017    0.069     0  06:00       0.375        1.05      19.041
  B06                  JUNCTION     0.017    0.071     0  05:59       0.375        1.07      18.778
  B07                  JUNCTION     0.017    0.069     0  05:59       0.375        1.05      19.169
  B08                  JUNCTION     0.017    0.067     0  00:40       0.375           1      20.237
  B09                  JUNCTION     0.017    0.064     0  00:38       0.375       0.938      22.007
  B10                  JUNCTION     0.017    0.058     0  00:36       0.375       0.856      17.447
  C00                  JUNCTION     0.017    0.034     0  05:59       0.375       0.598      26.562
  C01                  JUNCTION     0.017    0.052     0  00:57       0.375       0.847      24.763
  C02                  JUNCTION     0.017    0.067     0  00:55       0.375        1.02      19.677
  C03                  JUNCTION     0.017    0.077     0  00:53       0.375        1.17      16.766
  C04                  JUNCTION     0.017    0.085     0  00:50       0.375        1.29      14.971
  C05                  JUNCTION     0.017    0.092     0  05:49       0.375        1.38      13.911
  C06                  JUNCTION     0.017    0.098     0  05:51       0.375        1.43      13.440
  C07                  JUNCTION     0.017    0.098     0  05:47       0.375        1.42      13.499
  C08                  JUNCTION     0.017    0.095     0  05:47       0.375        1.37      14.039
  C09                  JUNCTION     0.017    0.088     0  00:37       0.375         1.3      14.945
  C10                  JUNCTION     0.017    0.084     0  00:35       0.375        1.22      11.645
  D00                  JUNCTION     0.017    0.042     0  06:00       0.375       0.656      23.704
  D01                  JUNCTION     0.017    0.059     0  00:55       0.375       0.942      21.770
  D02                  JUNCTION     0.017    0.077     0  00:53       0.375        1.17      16.766
  D03                  JUNCTION     0.017    0.092     0  00:50       0.375        1.39      13.818
  D04                  JUNCTION     0.017    0.105     0  05:48       0.375        1.58      11.950
  D05                  JUNCTION     0.017    0.120     0  05:58       0.375        1.74      10.775
  D06                  JUNCTION     0.017    0.130     0  05:59       0.375        1.84      10.133
  D07                  JUNCTION     0.017    0.134     0  05:59       0.375        1.87       9.957
  D08                  JUNCTION     0.017    0.131     0  05:58       0.375        1.83      10.198
  D09                  JUNCTION     0.017    0.122     0  05:58       0.375        1.74      10.785
  D10                  JUNCTION     0.017    0.109     0  00:35       0.375        1.63       8.480
  E00                  JUNCTION     0.017    0.047     0  06:00       0.375       0.695      22.099
  E01                  JUNCTION     0.017    0.064     0  00:52       0.375        1.01      19.989
  E02                  JUNCTION     0.017    0.085     0  00:50       0.375        1.29      14.971
  E03                  JUNCTION     0.017    0.105     0  05:48       0.375        1.58      11.950
  E04                  JUNCTION     0.017    0.129     0  05:58       0.375        1.86       9.993
  E05                  JUNCTION     0.017    0.152     0  05:59       0.375        2.11       8.708
  E06                  JUNCTION     0.017    0.169     0  05:59       0.375         2.3       7.924
  E07                  JUNCTION     0.017    0.179     0  05:59       0.375         2.4       7.571
  E08                  JUNCTION     0.017    0.177     0  05:59       0.375        2.39       7.617
  E09                  JUNCTION     0.017    0.165     0  05:59       0.375        2.28       8.028
  E10                  JUNCTION     0.017    0.147     0  06:00       0.375        2.11       6.421
  F00                  JUNCTION     0.017    0.049     0  06:00       0.375       0.713      21.440
  F01                  JUNCTION     0.017    0.069     0  06:00       0.375        1.05      19.041
  F02                  JUNCTION     0.017    0.092     0  05:49       0.375        1.38      13.911
  F03                  JUNCTION     0.017    0.120     0  05:58       0.375        1.74      10.775
  F04                  JUNCTION     0.017    0.152     0  05:59       0.375        2.11       8.708
  F05                  JUNCTION     0.017    0.184     0  05:59       0.375        2.48       7.301
  F06                  JUNCTION     0.017    0.213     0  05:59       0.375        2.82       6.377
  F07                  JUNCTION     0.017    0.233     0  05:59       0.375        3.06       5.861
  F08                  JUNCTION     0.017    0.237     0  06:00       0.375        3.12       5.735
  F09                  JUNCTION     0.017    0.223     0  06:00       0.375        2.99       6.006
  F10                  JUNCTION     0.017    0.196     0  06:00       0.375        2.72       4.912
  G00                  JUNCTION     0.017    0.048     0  05:59       0.375       0.709      21.623
  G01                  JUNCTION     0.017    0.071     0  05:59       0.375        1.07      18.778
  G02                  JUNCTION     0.017    0.098     0  05:51       0.375        1.43      13.440
  G03                  JUNCTION     0.017    0.130     0  05:59       0.375        1.84      10.133
  G04                  JUNCTION     0.017    0.169     0  05:59       0.375         2.3       7.924
  G05                  JUNCTION     0.017    0.213     0  05:59       0.375        2.82       6.377
  G06                  JUNCTION     0.017    0.258     0  05:59       0.375        3.36       5.302
  G07                  JUNCTION     0.017    0.297     0  05:59       0.375        3.84       4.618
  G08                  JUNCTION     0.017    0.316     0  06:00       0.375         4.1       4.312
  G09                  JUNCTION     0.017    0.306     0  06:00       0.375        4.01       4.416
  G10                  JUNCTION     0.017    0.265     0  06:00       0.375        3.58       3.695
  H00                  JUNCTION     0.017    0.045     0  05:59       0.375       0.682      22.699
  H01                  JUNCTION     0.017    0.069     0  05:59       0.375        1.05      19.169
  H02                  JUNCTION     0.017    0.098     0  05:47       0.375        1.42      13.499
  H03                  JUNCTION     0.017    0.134     0  05:59       0.375        1.87       9.957
  H04                  JUNCTION     0.017    0.179     0  05:59       0.375         2.4       7.571
  H05                  JUNCTION     0.017    0.233     0  05:59       0.375        3.06       5.861
  H06                  JUNCTION     0.017    0.297     0  05:59       0.375        3.84       4.618
  H07                  JUNCTION     0.017    0.364     0  06:00       0.375        4.68       3.756
  H08                  JUNCTION     0.017    0.419     0  06:00       0.375        5.39       3.251
  H09                  JUNCTION     0.017    0.431     0  06:00       0.375        5.57       3.142
  H10                  JUNCTION     0.017    0.376     0  06:00       0.375        4.96       2.643
  I00                  JUNCTION     0.017    0.041     0  00:44       0.375       0.633      24.888
  I01                  JUNCTION     0.017    0.067     0  00:40       0.375           1      20.237
  I02                  JUNCTION     0.017    0.095     0  05:47       0.375        1.37      14.039
  I03                  JUNCTION     0.017    0.131     0  05:58       0.375        1.83      10.198
  I04                  JUNCTION     0.017    0.177     0  05:59       0.375        2.39       7.617
  I05                  JUNCTION     0.017    0.237     0  06:00       0.375        3.12       5.735
  I06                  JUNCTION     0.017    0.316     0  06:00       0.375         4.1       4.312
  I07                  JUNCTION     0.017    0.419     0  06:00       0.375        5.39       3.251
  I08                  JUNCTION     0.017    0.536     0  06:00       0.375        6.88       2.530
  I09                  JUNCTION     0.017    0.623     0  06:00       0.375           8       2.169
  I10                  JUNCTION     0.017    0.585     0  06:00       0.375        7.59       1.713
  J00                  JUNCTION     0.017    0.038     0  00:40       0.375       0.565      28.805
  J01                  JUNCTION     0.017    0.064     0  00:38       0.375       0.938      22.007
  J02                  JUNCTION     0.017    0.088     0  00:37       0.375         1.3      14.945
  J03                  JUNCTION     0.017    0.122     0  05:58       0.375        1.74      10.785
  J04                  JUNCTION     0.017    0.165     0  05:59       0.375        2.28       8.028
  J05                  JUNCTION     0.017    0.223     0  06:00       0.375        2.99       6.006
  J06                  JUNCTION     0.017    0.306     0  06:00       0.375        4.01       4.416
  J07                  JUNCTION     0.017    0.431     0  06:00       0.375        5.57       3.142
  J08                  JUNCTION     0.017    0.623     0  06:00       0.375           8       2.169
  J09                  JUNCTION     0.017    0.879     0  06:00       0.375        11.3       1.530
  J10                  JUNCTION     0.017    1.042     0  06:00       0.375        13.4       0.965
  K00                  JUNCTION     0.017    0.030     0  00:37       0.375       0.468      21.974
  K01                  JUNCTION     0.017    0.058     0  00:36       0.375       0.856      17.447
  K02                  JUNCTION     0.017    0.084     0  00:35       0.375        1.22      11.645
  K03                  JUNCTION     0.017    0.109     0  00:35       0.375        1.63       8.480
  K04                  JUNCTION     0.017    0.147     0  06:00       0.375        2.11       6.421
  K05                  JUNCTION     0.017    0.196     0  06:00       0.375        2.72       4.912
  K06                  JUNCTION     0.017    0.265     0  06:00       0.375        3.58       3.695
  K07                  JUNCTION     0.017    0.376     0  06:00       0.375        4.96       2.643
  K08                  JUNCTION     0.017    0.585     0  06:00       0.375        7.59       1.713
  K09                  JUNCTION     0.017    1.042     0  06:00       0.375        13.4       0.965
  K10                  JUNCTION     0.017    2.102     0  06:00       0.375        26.9       0.494
  Outfall              OUTFALL      0.000    2.102     0  06:00           0        26.8       0.000
  
  
  **********************
  Node Surcharge Summary
  **********************
  
  Surcharging occurs when water rises above the top of the highest conduit.
  ---------------------------------------------------------------------
                                               Max. Height   Min. Depth
                                   Hours       Above Crown    Below Rim
  Node                 Type      Surcharged         Meters       Meters
  ---------------------------------------------------------------------
  A00                  JUNCTION        1.09          0.457        8.543
  A01                  JUNCTION        1.15          0.507        8.493
  A02                  JUNCTION        1.21          0.557        8.443
  A03                  JUNCTION        1.27          0.606        8.394
  A04                  JUNCTION        1.35          0.656        8.344
  A05                  JUNCTION        1.44          0.706        8.294
  A06                  JUNCTION        1.54          0.756        8.244
  A07                  JUNCTION        1.66          0.806        8.194
  A08                  JUNCTION        1.80          0.855        8.145
  A09                  JUNCTION        1.95          0.905        8.095
  A10                  JUNCTION        2.13          0.955        8.045
  B00                  JUNCTION        1.15          0.507        8.493
  B01                  JUNCTION        1.21          0.557        8.443
  B02                  JUNCTION        1.28          0.607        8.393
  B03                  JUNCTION        1.35          0.656        8.344
  B04                  JUNCTION        1.44          0.706        8.294
  B05                  JUNCTION        1.54          0.756        8.244
  B06                  JUNCTION        1.66          0.806        8.194
  B07                  JUNCTION        1.80          0.855        8.145
  B08                  JUNCTION        1.95          0.905        8.095
  B09                  JUNCTION        2.13          0.955        8.045
  B10                  JUNCTION        2.32          1.005        7.995
  C00                  JUNCTION        1.21          0.557        8.443
  C01                  JUNCTION        1.28          0.607        8.393
  C02                  JUNCTION        1.35          0.657        8.343
  C03                  JUNCTION        1.44          0.706        8.294
  C04                  JUNCTION        1.54          0.756        8.244
  C05                  JUNCTION        1.66          0.806        8.194
  C06                  JUNCTION        1.80          0.855        8.145
  C07                  JUNCTION        1.95          0.905        8.095
  C08                  JUNCTION        2.12          0.955        8.045
  C09                  JUNCTION        2.32          1.005        7.995
  C10                  JUNCTION        2.54          1.055        7.945
  D00                  JUNCTION        1.27          0.606        8.394
  D01                  JUNCTION        1.35          0.656        8.344
  D02                  JUNCTION        1.44          0.706        8.294
  D03                  JUNCTION        1.54          0.756        8.244
  D04                  JUNCTION        1.66          0.805        8.195
  D05                  JUNCTION        1.80          0.855        8.145
  D06                  JUNCTION        1.95          0.904        8.096
  D07                  JUNCTION        2.12          0.954        8.046
  D08                  JUNCTION        2.32          1.003        7.997
  D09                  JUNCTION        2.54          1.053        7.947
  D10                  JUNCTION        2.78          1.103        7.897
  E00                  JUNCTION        1.35          0.656        8.344
  E01                  JUNCTION        1.44          0.706        8.294
  E02                  JUNCTION        1.54          0.756        8.244
  E03                  JUNCTION        1.66          0.805        8.195
  E04                  JUNCTION        1.80          0.855        8.145
  E05                  JUNCTION        1.95          0.904        8.096
  E06                  JUNCTION        2.12          0.952        8.048
  E07                  JUNCTION        2.32          1.001        7.999
  E08                  JUNCTION        2.54          1.050        7.950
  E09                  JUNCTION        2.78          1.100        7.900
  E10                  JUNCTION        3.03          1.150        7.850
  F00                  JUNCTION        1.44          0.706        8.294
  F01                  JUNCTION        1.54          0.756        8.244
  F02                  JUNCTION        1.66          0.806        8.194
  F03                  JUNCTION        1.80          0.855        8.145
  F04                  JUNCTION        1.95          0.904        8.096
  F05                  JUNCTION        2.12          0.952        8.048
  F06                  JUNCTION        2.32          1.000        8.000
  F07                  JUNCTION        2.54          1.047        7.953
  F08                  JUNCTION        2.77          1.096        7.904
  F09                  JUNCTION        3.02          1.145        7.855
  F10                  JUNCTION        3.28          1.194        7.806
  G00                  JUNCTION        1.54          0.756        8.244
  G01                  JUNCTION        1.66          0.806        8.194
  G02                  JUNCTION        1.80          0.855        8.145
  G03                  JUNCTION        1.95          0.904        8.096
  G04                  JUNCTION        2.12          0.952        8.048
  G05                  JUNCTION        2.32          1.000        8.000
  G06                  JUNCTION        2.53          1.046        7.954
  G07                  JUNCTION        2.77          1.092        7.908
  G08                  JUNCTION        3.01          1.138        7.862
  G09                  JUNCTION        3.26          1.185        7.815
  G10                  JUNCTION        3.52          1.235        7.765
  H00                  JUNCTION        1.66          0.806        8.194
  H01                  JUNCTION        1.80          0.855        8.145
  H02                  JUNCTION        1.95          0.905        8.095
  H03                  JUNCTION        2.12          0.954        8.046
  H04                  JUNCTION        2.32          1.001        7.999
  H05                  JUNCTION        2.54          1.047        7.953
  H06                  JUNCTION        2.77          1.092        7.908
  H07                  JUNCTION        3.00          1.134        7.866
  H08                  JUNCTION        3.25          1.175        7.825
  H09                  JUNCTION        3.50          1.219        7.781
  H10                  JUNCTION        3.76          1.267        7.733
  I00                  JUNCTION        1.80          0.855        8.145
  I01                  JUNCTION        1.95          0.905        8.095
  I02                  JUNCTION        2.12          0.955        8.045
  I03                  JUNCTION        2.32          1.003        7.997
  I04                  JUNCTION        2.54          1.050        7.950
  I05                  JUNCTION        2.77          1.096        7.904
  I06                  JUNCTION        3.01          1.138        7.862
  I07                  JUNCTION        3.25          1.175        7.825
  I08                  JUNCTION        3.49          1.208        7.792
  I09                  JUNCTION        3.72          1.240        7.760
  I10                  JUNCTION        3.97          1.281        7.719
  J00                  JUNCTION        1.95          0.905        8.095
  J01                  JUNCTION        2.13          0.955        8.045
  J02                  JUNCTION        2.32          1.005        7.995
  J03                  JUNCTION        2.54          1.053        7.947
  J04                  JUNCTION        2.78          1.100        7.900
  J05                  JUNCTION        3.02          1.145        7.855
  J06                  JUNCTION        3.26          1.185        7.815
  J07                  JUNCTION        3.50          1.219        7.781
  J08                  JUNCTION        3.72          1.240        7.760
  J09                  JUNCTION        3.93          1.242        7.758
  J10                  JUNCTION        4.13          1.243        7.757
  K00                  JUNCTION        2.13          0.955        8.045
  K01                  JUNCTION        2.32          1.005        7.995
  K02                  JUNCTION        2.54          1.055        7.945
  K03                  JUNCTION        2.78          1.103        7.897
  K04                  JUNCTION        3.03          1.150        7.850
  K05                  JUNCTION        3.28          1.194        7.806
  K06                  JUNCTION        3.52          1.235        7.765
  K07                  JUNCTION        3.76          1.267        7.733
  K08                  JUNCTION        3.97          1.281        7.719
  K09                  JUNCTION        4.13          1.243        7.757
  K10                  JUNCTION        4.03          1.015        7.985
  
  
  *********************
  Node Flooding Summary
  *********************
  
  No nodes were flooded.
  
  
  ***********************
  Outfall Loading Summary
  ***********************
  
  -----------------------------------------------------------
                         Flow       Avg       Max       Total
                         Freq      Flow      Flow      Volume
  Outfall Node           Pcnt       CMS       CMS    10^6 ltr
  -----------------------------------------------------------
  Outfall               99.90     1.241     2.102      26.766
  -----------------------------------------------------------
  System                99.90     1.241     2.102      26.766
  
  
  ********************
  Link Flow Summary
  ********************
  
  -----------------------------------------------------------------------------
                                 Maximum  Time of Max   Maximum    Max/    Max/
                                  |Flow|   Occurrence   |Veloc|    Full    Full
  Link                 Type          CMS  days hr:min     m/sec    Flow   Depth
  -----------------------------------------------------------------------------
  121                  CONDUIT     0.009     0  05:27      0.21    0.02    1.00
  122                  CONDUIT     0.017     0  05:59      0.23    0.04    1.00
  123                  CONDUIT     0.024     0  06:00      0.26    0.06    1.00
  124                  CONDUIT     0.029     0  06:00      0.27    0.07    1.00
  125                  CONDUIT     0.032     0  06:00      0.28    0.07    1.00
  126                  CONDUIT     0.031     0  05:59      0.29    0.07    1.00
  127                  CONDUIT     0.027     0  05:59      0.29    0.06    1.00
  128                  CONDUIT     0.024     0  00:44      0.27    0.06    1.00
  129                  CONDUIT     0.021     0  00:40      0.24    0.05    1.00
  130                  CONDUIT     0.013     0  00:37      0.15    0.03    1.00
  131                  CONDUIT     0.012     0  00:58      0.22    0.03    1.00
  132                  CONDUIT     0.021     0  01:00      0.26    0.05    1.00
  133                  CONDUIT     0.027     0  00:59      0.29    0.06    1.00
  134                  CONDUIT     0.031     0  00:57      0.30    0.07    1.00
  135                  CONDUIT     0.035     0  00:54      0.32    0.08    1.00
  136                  CONDUIT     0.037     0  00:50      0.33    0.08    1.00
  137                  CONDUIT     0.037     0  00:45      0.32    0.09    1.00
  138                  CONDUIT     0.035     0  00:41      0.30    0.08    1.00
  139                  CONDUIT     0.028     0  00:37      0.25    0.07    1.00
  140                  CONDUIT     0.016     0  00:35      0.14    0.04    1.00
  141                  CONDUIT     0.014     0  00:53      0.22    0.03    1.00
  142                  CONDUIT     0.025     0  00:55      0.27    0.06    1.00
  143                  CONDUIT     0.033     0  00:54      0.30    0.08    1.00
  144                  CONDUIT     0.040     0  00:52      0.32    0.09    1.00
  145                  CONDUIT     0.044     0  00:50      0.34    0.10    1.00
  146                  CONDUIT     0.047     0  00:46      0.35    0.11    1.00
  147                  CONDUIT     0.047     0  00:43      0.34    0.11    1.00
  148                  CONDUIT     0.043     0  00:39      0.31    0.10    1.00
  149                  CONDUIT     0.034     0  00:36      0.25    0.08    1.00
  150                  CONDUIT     0.018     0  00:35      0.15    0.04    1.00
  151                  CONDUIT     0.014     0  00:50      0.22    0.03    1.00
  152                  CONDUIT     0.027     0  00:51      0.27    0.06    1.00
  153                  CONDUIT     0.037     0  00:50      0.30    0.09    1.00
  154                  CONDUIT     0.045     0  00:48      0.33    0.10    1.00
  155                  CONDUIT     0.051     0  00:46      0.35    0.12    1.00
  156                  CONDUIT     0.054     0  00:43      0.36    0.12    1.00
  157                  CONDUIT     0.054     0  00:40      0.35    0.12    1.00
  158                  CONDUIT     0.048     0  00:37      0.31    0.11    1.00
  159                  CONDUIT     0.036     0  00:35      0.25    0.08    1.00
  160                  CONDUIT     0.018     0  00:34      0.15    0.04    1.00
  161                  CONDUIT     0.015     0  05:48      0.22    0.03    1.00
  162                  CONDUIT     0.030     0  05:55      0.27    0.07    1.00
  163                  CONDUIT     0.044     0  06:00      0.31    0.10    1.00
  164                  CONDUIT     0.056     0  05:58      0.33    0.13    1.00
  165                  CONDUIT     0.065     0  05:59      0.36    0.15    1.00
  166                  CONDUIT     0.068     0  05:59      0.36    0.16    1.00
  167                  CONDUIT     0.066     0  05:59      0.35    0.15    1.00
  168                  CONDUIT     0.056     0  05:59      0.31    0.13    1.00
  169                  CONDUIT     0.040     0  05:59      0.25    0.09    1.00
  170                  CONDUIT     0.020     0  05:59      0.15    0.05    1.00
  171                  CONDUIT     0.018     0  05:59      0.22    0.04    1.00
  172                  CONDUIT     0.036     0  05:59      0.27    0.08    1.00
  173                  CONDUIT     0.054     0  06:00      0.31    0.12    1.00
  174                  CONDUIT     0.070     0  05:59      0.34    0.16    1.00
  175                  CONDUIT     0.083     0  05:59      0.36    0.19    1.00
  176                  CONDUIT     0.092     0  05:59      0.37    0.21    1.00
  177                  CONDUIT     0.093     0  05:59      0.35    0.21    1.00
  178                  CONDUIT     0.083     0  05:59      0.31    0.19    1.00
  179                  CONDUIT     0.061     0  05:59      0.25    0.14    1.00
  180                  CONDUIT     0.032     0  05:59      0.15    0.07    1.00
  181                  CONDUIT     0.021     0  05:59      0.22    0.05    1.00
  182                  CONDUIT     0.042     0  05:59      0.27    0.10    1.00
  183                  CONDUIT     0.063     0  05:59      0.31    0.14    1.00
  184                  CONDUIT     0.084     0  05:59      0.34    0.19    1.00
  185                  CONDUIT     0.104     0  05:59      0.36    0.24    1.00
  186                  CONDUIT     0.120     0  05:59      0.37    0.28    1.00
  187                  CONDUIT     0.129     0  06:00      0.35    0.30    1.00
  188                  CONDUIT     0.123     0  05:59      0.31    0.28    1.00
  189                  CONDUIT     0.097     0  05:59      0.25    0.22    1.00
  190                  CONDUIT     0.052     0  05:59      0.15    0.12    1.00
  191                  CONDUIT     0.023     0  05:59      0.22    0.05    1.00
  192                  CONDUIT     0.046     0  05:58      0.27    0.11    1.00
  193                  CONDUIT     0.070     0  06:00      0.31    0.16    1.00
  194                  CONDUIT     0.096     0  05:59      0.33    0.22    1.00
  195                  CONDUIT     0.123     0  05:59      0.36    0.28    1.00
  196                  CONDUIT     0.150     0  05:59      0.37    0.34    1.00
  197                  CONDUIT     0.174     0  06:00      0.35    0.40    1.00
  198                  CONDUIT     0.182     0  06:00      0.30    0.42    1.00
  199                  CONDUIT     0.160     0  05:59      0.25    0.37    1.00
  200                  CONDUIT     0.094     0  05:59      0.15    0.21    1.00
  201                  CONDUIT     0.024     0  05:59      0.22    0.06    1.00
  202                  CONDUIT     0.049     0  05:58      0.27    0.11    1.00
  203                  CONDUIT     0.075     0  06:00      0.30    0.17    1.00
  204                  CONDUIT     0.104     0  06:00      0.33    0.24    1.00
  205                  CONDUIT     0.137     0  05:59      0.36    0.31    1.00
  206                  CONDUIT     0.176     0  05:59      0.37    0.40    1.00
  207                  CONDUIT     0.219     0  06:00      0.36    0.50    1.00
  208                  CONDUIT     0.259     0  06:00      0.33    0.60    1.00
  209                  CONDUIT     0.268     0  06:00      0.34    0.62    1.00
  210                  CONDUIT     0.192     0  06:00      0.24    0.44    1.00
  211                  CONDUIT     0.025     0  05:59      0.23    0.06    1.00
  212                  CONDUIT     0.050     0  05:59      0.27    0.11    1.00
  213                  CONDUIT     0.077     0  06:00      0.31    0.18    1.00
  214                  CONDUIT     0.108     0  06:00      0.35    0.25    1.00
  215                  CONDUIT     0.145     0  05:59      0.38    0.33    1.00
  216                  CONDUIT     0.191     0  05:59      0.40    0.44    1.00
  217                  CONDUIT     0.254     0  05:59      0.39    0.58    1.00
  218                  CONDUIT     0.337     0  06:00      0.43    0.77    1.00
  219                  CONDUIT     0.431     0  06:00      0.55    0.99    1.00
  220                  CONDUIT     0.440     0  06:00      0.56    1.01    1.00
  221                  CONDUIT     0.025     0  05:59      0.26    0.06    1.00
  222                  CONDUIT     0.050     0  06:00      0.31    0.12    1.00
  223                  CONDUIT     0.078     0  06:00      0.35    0.18    1.00
  224                  CONDUIT     0.109     0  06:00      0.39    0.25    1.00
  225                  CONDUIT     0.147     0  05:59      0.42    0.34    1.00
  226                  CONDUIT     0.196     0  05:59      0.43    0.45    1.00
  227                  CONDUIT     0.265     0  05:59      0.42    0.61    1.00
  228                  CONDUIT     0.376     0  06:00      0.48    0.86    1.00
  229                  CONDUIT     0.585     0  06:00      0.75    1.34    1.00
  230                  CONDUIT     1.042     0  06:00      1.33    2.39    1.00
  231                  CONDUIT     0.025     0  05:59      0.26    0.06    1.00
  232                  CONDUIT     0.050     0  06:00      0.31    0.12    1.00
  233                  CONDUIT     0.078     0  06:00      0.35    0.18    1.00
  234                  CONDUIT     0.109     0  06:00      0.39    0.25    1.00
  235                  CONDUIT     0.147     0  05:59      0.42    0.34    1.00
  236                  CONDUIT     0.196     0  05:59      0.43    0.45    1.00
  237                  CONDUIT     0.265     0  05:59      0.42    0.61    1.00
  238                  CONDUIT     0.376     0  06:00      0.48    0.86    1.00
  239                  CONDUIT     0.585     0  06:00      0.75    1.34    1.00
  240                  CONDUIT     1.042     0  06:00      1.33    2.39    1.00
  241                  CONDUIT     2.102     0  06:00      2.68   61.80    1.00
  242                  CONDUIT     0.009     0  05:27      0.21    0.02    1.00
  243                  CONDUIT     0.017     0  05:59      0.23    0.04    1.00
  244                  CONDUIT     0.024     0  06:00      0.26    0.06    1.00
  245                  CONDUIT     0.029     0  06:00      0.27    0.07    1.00
  246                  CONDUIT     0.032     0  06:00      0.28    0.07    1.00
  247                  CONDUIT     0.031     0  05:59      0.29    0.07    1.00
  248                  CONDUIT     0.027     0  05:59      0.29    0.06    1.00
  249                  CONDUIT     0.024     0  00:44      0.27    0.06    1.00
  250                  CONDUIT     0.021     0  00:40      0.24    0.05    1.00
  251                  CONDUIT     0.013     0  00:37      0.15    0.03    1.00
  252                  CONDUIT     0.012     0  00:58      0.22    0.03    1.00
  253                  CONDUIT     0.021     0  01:00      0.26    0.05    1.00
  254                  CONDUIT     0.027     0  00:59      0.29    0.06    1.00
  255                  CONDUIT     0.031     0  00:57      0.30    0.07    1.00
  256                  CONDUIT     0.035     0  00:54      0.32    0.08    1.00
  257                  CONDUIT     0.037     0  00:50      0.33    0.08    1.00
  258                  CONDUIT     0.037     0  00:45      0.32    0.09    1.00
  259                  CONDUIT     0.035     0  00:41      0.30    0.08    1.00
  260                  CONDUIT     0.028     0  00:37      0.25    0.07    1.00
  261                  CONDUIT     0.016     0  00:35      0.14    0.04    1.00
  262                  CONDUIT     0.014     0  00:53      0.22    0.03    1.00
  263                  CONDUIT     0.025     0  00:55      0.27    0.06    1.00
  264                  CONDUIT     0.033     0  00:54      0.30    0.08    1.00
  265                  CONDUIT     0.040     0  00:52      0.32    0.09    1.00
  266                  CONDUIT     0.044     0  00:50      0.34    0.10    1.00
  267                  CONDUIT     0.047     0  00:46      0.35    0.11    1.00
  268                  CONDUIT     0.047     0  00:43      0.34    0.11    1.00
  269                  CONDUIT     0.043     0  00:39      0.31    0.10    1.00
  270                  CONDUIT     0.034     0  00:36      0.25    0.08    1.00
  271                  CONDUIT     0.018     0  00:35      0.15    0.04    1.00
  272                  CONDUIT     0.014     0  00:50      0.22    0.03    1.00
  273                  CONDUIT     0.027     0  00:51      0.27    0.06    1.00
  274                  CONDUIT     0.037     0  00:50      0.30    0.09    1.00
  275                  CONDUIT     0.045     0  00:48      0.33    0.10    1.00
  276                  CONDUIT     0.051     0  00:46      0.35    0.12    1.00
  277                  CONDUIT     0.054     0  00:43      0.36    0.12    1.00
  278                  CONDUIT     0.054     0  00:40      0.35    0.12    1.00
  279                  CONDUIT     0.048     0  00:37      0.31    0.11    1.00
  280                  CONDUIT     0.036     0  00:35      0.25    0.08    1.00
  281                  CONDUIT     0.018     0  00:34      0.15    0.04    1.00
  282                  CONDUIT     0.015     0  05:48      0.22    0.03    1.00
  283                  CONDUIT     0.030     0  05:55      0.27    0.07    1.00
  284                  CONDUIT     0.044     0  06:00      0.31    0.10    1.00
  285                  CONDUIT     0.056     0  05:58      0.33    0.13    1.00
  286                  CONDUIT     0.065     0  05:59      0.36    0.15    1.00
  287                  CONDUIT     0.068     0  05:59      0.36    0.16    1.00
  288                  CONDUIT     0.066     0  05:59      0.35    0.15    1.00
  289                  CONDUIT     0.056     0  05:59      0.31    0.13    1.00
  290                  CONDUIT     0.040     0  05:59      0.25    0.09    1.00
  291                  CONDUIT     0.020     0  05:59      0.15    0.05    1.00
  292                  CONDUIT     0.018     0  05:59      0.22    0.04    1.00
  293                  CONDUIT     0.036     0  05:59      0.27    0.08    1.00
  294                  CONDUIT     0.054     0  06:00      0.31    0.12    1.00
  295                  CONDUIT     0.070     0  05:59      0.34    0.16    1.00
  296                  CONDUIT     0.083     0  05:59      0.36    0.19    1.00
  297                  CONDUIT     0.092     0  05:59      0.37    0.21    1.00
  298                  CONDUIT     0.093     0  05:59      0.35    0.21    1.00
  299                  CONDUIT     0.083     0  05:59      0.31    0.19    1.00
  300                  CONDUIT     0.061     0  05:59      0.25    0.14    1.00
  301                  CONDUIT     0.032     0  05:59      0.15    0.07    1.00
  302                  CONDUIT     0.021     0  05:59      0.22    0.05    1.00
  303                  CONDUIT     0.042     0  05:59      0.27    0.10    1.00
  304                  CONDUIT     0.063     0  05:59      0.31    0.14    1.00
  305                  CONDUIT     0.084     0  05:59      0.34    0.19    1.00
  306                  CONDUIT     0.104     0  05:59      0.36    0.24    1.00
  307                  CONDUIT     0.120     0  05:59      0.37    0.28    1.00
  308                  CONDUIT     0.129     0  06:00      0.35    0.30    1.00
  309                  CONDUIT     0.123     0  05:59      0.31    0.28    1.00
  310                  CONDUIT     0.097     0  05:59      0.25    0.22    1.00
  311                  CONDUIT     0.052     0  05:59      0.15    0.12    1.00
  312                  CONDUIT     0.023     0  05:59      0.22    0.05    1.00
  313                  CONDUIT     0.046     0  05:58      0.27    0.11    1.00
  314                  CONDUIT     0.070     0  06:00      0.31    0.16    1.00
  315                  CONDUIT     0.096     0  05:59      0.33    0.22    1.00
  316                  CONDUIT     0.123     0  05:59      0.36    0.28    1.00
  317                  CONDUIT     0.150     0  05:59      0.37    0.34    1.00
  318                  CONDUIT     0.174     0  06:00      0.35    0.40    1.00
  319                  CONDUIT     0.182     0  06:00      0.30    0.42    1.00
  320                  CONDUIT     0.160     0  05:59      0.25    0.37    1.00
  321                  CONDUIT     0.094     0  05:59      0.15    0.21    1.00
  322                  CONDUIT     0.024     0  05:59      0.22    0.06    1.00
  323                  CONDUIT     0.049     0  05:58      0.27    0.11    1.00
  324                  CONDUIT     0.075     0  06:00      0.30    0.17    1.00
  325                  CONDUIT     0.104     0  06:00      0.33    0.24    1.00
  326                  CONDUIT     0.137     0  05:59      0.36    0.31    1.00
  327                  CONDUIT     0.176     0  05:59      0.37    0.40    1.00
  328                  CONDUIT     0.219     0  06:00      0.36    0.50    1.00
  329                  CONDUIT     0.259     0  06:00      0.33    0.60    1.00
  330                  CONDUIT     0.268     0  06:00      0.34    0.62    1.00
  331                  CONDUIT     0.192     0  06:00      0.24    0.44    1.00
  332                  CONDUIT     0.025     0  05:59      0.23    0.06    1.00
  333                  CONDUIT     0.050     0  05:59      0.27    0.11    1.00
  334                  CONDUIT     0.077     0  06:00      0.31    0.18    1.00
  335                  CONDUIT     0.108     0  06:00      0.35    0.25    1.00
  336                  CONDUIT     0.145     0  05:59      0.38    0.33    1.00
  337                  CONDUIT     0.191     0  05:59      0.40    0.44    1.00
  338                  CONDUIT     0.254     0  05:59      0.39    0.58    1.00
  339                  CONDUIT     0.337     0  06:00      0.43    0.77    1.00
  340                  CONDUIT     0.431     0  06:00      0.55    0.99    1.00
  341                  CONDUIT     0.440     0  06:00      0.56    1.01    1.00
  
  
  ***************************
  Flow Classification Summary
  ***************************
  
  -------------------------------------------------------------------------------------
                      Adjusted    ---------- Fraction of Time in Flow Class ---------- 
                       /Actual         Up    Down  Sub   Sup   Up    Down  Norm  Inlet 
  Conduit               Length    Dry  Dry   Dry   Crit  Crit  Crit  Crit  Ltd   Ctrl  
  -------------------------------------------------------------------------------------
  121                     1.00   0.00  0.00  0.00  1.00  0.00  0.00  0.00  0.01  0.00
  122                     1.00   0.00  0.00  0.00  1.00  0.00  0.00  0.00  0.00  0.00
  123                     1.00   0.00  0.00  0.00  1.00  0.00  0.00  0.00  0.00  0.00
  124                     1.00   0.00  0.00  0.00  1.00  0.00  0.00  0.00  0.00  0.00
  125                     1.00   0.00  0.00  0.00  1.00  0.00  0.00  0.00  0.00  0.00
  126                     1.00   0.00  0.00  0.00  1.00  0.00  0.00  0.00  0.00  0.00
  127                     1.00   0.00  0.00  0.00  1.00  0.00  0.00  0.00  0.00  0.00
  128                     1.00   0.00  0.00  0.00  1.00  0.00  0.00  0.00  0.00  0.00
  129                     1.00   0.00  0.00  0.00  1.00  0.00  0.00  0.00  0.00  0.00
  130                     1.00   0.00  0.00  0.00  1.00  0.00  0.00  0.00  0.01  0.00
  131                     1.00   0.00  0.00  0.00  1.00  0.00  0.00  0.00  0.00  0.00
  132                     1.00   0.00  0.00  0.00  1.00  0.00  0.00  0.00  0.00  0.00
  133                     1.00   0.00  0.00  0.00  1.00  0.00  0.00  0.00  0.00  0.00
  134                     1.00   0.00  0.00  0.00  1.00  0.00  0.00  0.00  0.00  0.00
  135                     1.00   0.00  0.00  0.00  1.00  0.00  0.00  0.00  0.00  0.00
  136                     1.00   0.00  0.00  0.00  1.00  0.00  0.00  0.00  0.00  0.00
  137                     1.00   0.00  0.00  0.00  1.00  0.00  0.00  0.00  0.00  0.00
  138                     1.00   0.00  0.00  0.00  1.00  0.00  0.00  0.00  0.00  0.00
  139                     1.00   0.00  0.00  0.00  1.00  0.00  0.00  0.00  0.00  0.00
  140                     1.00   0.00  0.00  0.00  1.00  0.00  0.00  0.00  0.01  0.00
  141                     1.00   0.00  0.00  0.00  1.00  0.00  0.00  0.00  0.00  0.00
  142                     1.00   0.00  0.00  0.00  1.00  0.00  0.00  0.00  0.00  0.00
  143                     1.00   0.00  0.00  0.00  1.00  0.00  0.00  0.00  0.00  0.00
  144                     1.00   0.00  0.00  0.00  1.00  0.00  0.00  0.00  0.00  0.00
  145                     1.00   0.00  0.00  0.00  1.00  0.00  0.00  0.00  0.00  0.00
  146                     1.00   0.00  0.00  0.00  1.00  0.00  0.00  0.00  0.00  0.00
  147                     1.00   0.00  0.00  0.00  1.00  0.00  0.00  0.00  0.00  0.00
  148                     1.00   0.00  0.00  0.00  1.00  0.00  0.00  0.00  0.00  0.00
  149                     1.00   0.00  0.00  0.00  1.00  0.00  0.00  0.00  0.00  0.00
  150                     1.00   0.00  0.00  0.00  1.00  0.00  0.00  0.00  0.01  0.00
  151                     1.00   0.00  0.00  0.00  1.00  0.00  0.00  0.00  0.00  0.00
  152                     1.00   0.00  0.00  0.00  1.00  0.00  0.00  0.00  0.00  0.00
  153                     1.00   0.00  0.00  0.00  1.00  0.00  0.00  0.00  0.00  0.00
  154                     1.00   0.00  0.00  0.00  1.00  0.00  0.00  0.00  0.00  0.00
  155                     1.00   0.00  0.00  0.00  1.00  0.00  0.00  0.00  0.00  0.00
  156                     1.00   0.00  0.00  0.00  1.00  0.00  0.00  0.00  0.00  0.00
  157                     1.00   0.00  0.00  0.00  1.00  0.00  0.00  0.00  0.00  0.00
  158                     1.00   0.00  0.00  0.00  1.00  0.00  0.00  0.00  0.00  0.00
  159                     1.00   0.00  0.00  0.00  1.00  0.00  0.00  0.00  0.00  0.00
  160                     1.00   0.00  0.00  0.00  1.00  0.00  0.00  0.00  0.01  0.00
  161                     1.00   0.00  0.00  0.00  1.00  0.00  0.00  0.00  0.00  0.00
  162                     1.00   0.00  0.00  0.00  1.00  0.00  0.00  0.00  0.00  0.00
  163                     1.00   0.00  0.00  0.00  1.00  0.00  0.00  0.00  0.00  0.00
  164                     1.00   0.00  0.00  0.00  1.00  0.00  0.00  0.00  0.00  0.00
  165                     1.00   0.00  0.00  0.00  1.00  0.00  0.00  0.00  0.00  0.00
  166                     1.00   0.00  0.00  0.00  1.00  0.00  0.00  0.00  0.00  0.00
  167                     1.00   0.00  0.00  0.00  1.00  0.00  0.00  0.00  0.00  0.00
  168                     1.00   0.00  0.00  0.00  1.00  0.00  0.00  0.00  0.00  0.00
  169                     1.00   0.00  0.00  0.00  1.00  0.00  0.00  0.00  0.00  0.00
  170                     1.00   0.00  0.00  0.00  1.00  0.00  0.00  0.00  0.01  0.00
  171                     1.00   0.00  0.00  0.00  1.00  0.00  0.00  0.00  0.00  0.00
  172                     1.00   0.00  0.00  0.00  1.00  0.00  0.00  0.00  0.00  0.00
  173                     1.00   0.00  0.00  0.00  1.00  0.00  0.00  0.00  0.00  0.00
  174                     1.00   0.00  0.00  0.00  1.00  0.00  0.00  0.00  0.00  0.00
  175                     1.00   0.00  0.00  0.00  1.00  0.00  0.00  0.00  0.00  0.00
  176                     1.00   0.00  0.00  0.00  1.00  0.00  0.00  0.00  0.00  0.00
  177                     1.00   0.00  0.00  0.00  1.00  0.00  0.00  0.00  0.00  0.00
  178                     1.00   0.00  0.00  0.00  1.00  0.00  0.00  0.00  0.00  0.00
  179                     1.00   0.00  0.00  0.00  1.00  0.00  0.00  0.00  0.00  0.00
  180                     1.00   0.00  0.00  0.00  1.00  0.00  0.00  0.00  0.01  0.00
  181                     1.00   0.00  0.00  0.00  1.00  0.00  0.00  0.00  0.00  0.00
  182                     1.00   0.00  0.00  0.00  1.00  0.00  0.00  0.00  0.00  0.00
  183                     1.00   0.00  0.00  0.00  1.00  0.00  0.00  0.00  0.00  0.00
  184                     1.00   0.00  0.00  0.00  1.00  0.00  0.00  0.00  0.00  0.00
  185                     1.00   0.00  0.00  0.00  1.00  0.00  0.00  0.00  0.00  0.00
  186                     1.00   0.00  0.00  0.00  1.00  0.00  0.00  0.00  0.00  0.00
  187                     1.00   0.00  0.00  0.00  1.00  0.00  0.00  0.00  0.00  0.00
  188                     1.00   0.00  0.00  0.00  1.00  0.00  0.00  0.00  0.00  0.00
  189                     1.00   0.00  0.00  0.00  1.00  0.00  0.00  0.00  0.00  0.00
  190                     1.00   0.00  0.00  0.00  1.00  0.00  0.00  0.00  0.01  0.00
  191                     1.00   0.00  0.00  0.00  1.00  0.00  0.00  0.00  0.00  0.00
  192                     1.00   0.00  0.00  0.00  1.00  0.00  0.00  0.00  0.00  0.00
  193                     1.00   0.00  0.00  0.00  1.00  0.00  0.00  0.00  0.00  0.00
  194                     1.00   0.00  0.00  0.00  1.00  0.00  0.00  0.00  0.00  0.00
  195                     1.00   0.00  0.00  0.00  1.00  0.00  0.00  0.00  0.00  0.00
  196                     1.00   0.00  0.00  0.00  1.00  0.00  0.00  0.00  0.00  0.00
  197                     1.00   0.00  0.00  0.00  1.00  0.00  0.00  0.00  0.00  0.00
  198                     1.00   0.00  0.00  0.00  1.00  0.00  0.00  0.00  0.00  0.00
  199                     1.00   0.00  0.00  0.00  1.00  0.00  0.00  0.00  0.00  0.00
  200                     1.00   0.00  0.00  0.00  1.00  0.00  0.00  0.00  0.01  0.00
  201                     1.00   0.00  0.00  0.00  1.00  0.00  0.00  0.00  0.00  0.00
  202                     1.00   0.00  0.00  0.00  1.00  0.00  0.00  0.00  0.00  0.00
  203                     1.00   0.00  0.00  0.00  1.00  0.00  0.00  0.00  0.00  0.00
  204                     1.00   0.00  0.00  0.00  1.00  0.00  0.00  0.00  0.00  0.00
  205                     1.00   0.00  0.00  0.00  1.00  0.00  0.00  0.00  0.00  0.00
  206                     1.00   0.00  0.00  0.00  1.00  0.00  0.00  0.00  0.00  0.00
  207                     1.00   0.00  0.00  0.00  1.00  0.00  0.00  0.00  0.00  0.00
  208                     1.00   0.00  0.00  0.00  1.00  0.00  0.00  0.00  0.00  0.00
  209                     1.00   0.00  0.00  0.00  1.00  0.00  0.00  0.00  0.00  0.00
  210                     1.00   0.00  0.00  0.00  1.00  0.00  0.00  0.00  0.01  0.00
  211                     1.00   0.00  0.00  0.00  1.00  0.00  0.00  0.00  0.00  0.00
  212                     1.00   0.00  0.00  0.00  1.00  0.00  0.00  0.00  0.00  0.00
  213                     1.00   0.00  0.00  0.00  1.00  0.00  0.00  0.00  0.00  0.00
  214                     1.00   0.00  0.00  0.00  1.00  0.00  0.00  0.00  0.00  0.00
  215                     1.00   0.00  0.00  0.00  1.00  0.00  0.00  0.00  0.00  0.00
  216                     1.00   0.00  0.00  0.00  1.00  0.00  0.00  0.00  0.00  0.00
  217                     1.00   0.00  0.00  0.00  1.00  0.00  0.00  0.00  0.00  0.00
  218                     1.00   0.00  0.00  0.00  1.00  0.00  0.00  0.00  0.00  0.00
  219                     1.00   0.00  0.00  0.00  1.00  0.00  0.00  0.00  0.00  0.00
  220                     1.00   0.00  0.00  0.00  1.00  0.00  0.00  0.00  0.01  0.00
  221                     1.00   0.00  0.00  0.00  1.00  0.00  0.00  0.00  0.00  0.00
  222                     1.00   0.00  0.00  0.00  1.00  0.00  0.00  0.00  0.00  0.00
  223                     1.00   0.00  0.00  0.00  1.00  0.00  0.00  0.00  0.00  0.00
  224                     1.00   0.00  0.00  0.00  1.00  0.00  0.00  0.00  0.00  0.00
  225                     1.00   0.00  0.00  0.00  1.00  0.00  0.00  0.00  0.00  0.00
  226                     1.00   0.00  0.00  0.00  1.00  0.00  0.00  0.00  0.00  0.00
  227                     1.00   0.00  0.00  0.00  1.00  0.00  0.00  0.00  0.00  0.00
  228                     1.00   0.00  0.00  0.00  1.00  0.00  0.00  0.00  0.00  0.00
  229                     1.00   0.00  0.00  0.00  1.00  0.00  0.00  0.00  0.00  0.00
  230                     1.00   0.00  0.00  0.00  1.00  0.00  0.00  0.00  0.00  0.00
  231                     1.00   0.00  0.00  0.00  1.00  0.00  0.00  0.00  0.00  0.00
  232                     1.00   0.00  0.00  0.00  1.00  0.00  0.00  0.00  0.00  0.00
  233                     1.00   0.00  0.00  0.00  1.00  0.00  0.00  0.00  0.00  0.00
  234                     1.00   0.00  0.00  0.00  1.00  0.00  0.00  0.00  0.00  0.00
  235                     1.00   0.00  0.00  0.00  1.00  0.00  0.00  0.00  0.00  0.00
  236                     1.00   0.00  0.00  0.00  1.00  0.00  0.00  0.00  0.00  0.00
  237                     1.00   0.00  0.00  0.00  1.00  0.00  0.00  0.00  0.00  0.00
  238                     1.00   0.00  0.00  0.00  1.00  0.00  0.00  0.00  0.00  0.00
  239                     1.00   0.00  0.00  0.00  1.00  0.00  0.00  0.00  0.00  0.00
  240                     1.00   0.00  0.00  0.00  1.00  0.00  0.00  0.00  0.00  0.00
  241                     1.00   0.00  0.00  0.00  1.00  0.00  0.00  0.00  0.00  0.00
  242                     1.00   0.00  0.00  0.00  1.00  0.00  0.00  0.00  0.01  0.00
  243                     1.00   0.00  0.00  0.00  1.00  0.00  0.00  0.00  0.00  0.00
  244                     1.00   0.00  0.00  0.00  1.00  0.00  0.00  0.00  0.00  0.00
  245                     1.00   0.00  0.00  0.00  1.00  0.00  0.00  0.00  0.00  0.00
  246                     1.00   0.00  0.00  0.00  1.00  0.00  0.00  0.00  0.00  0.00
  247                     1.00   0.00  0.00  0.00  1.00  0.00  0.00  0.00  0.00  0.00
  248                     1.00   0.00  0.00  0.00  1.00  0.00  0.00  0.00  0.00  0.00
  249                     1.00   0.00  0.00  0.00  1.00  0.00  0.00  0.00  0.00  0.00
  250                     1.00   0.00  0.00  0.00  1.00  0.00  0.00  0.00  0.00  0.00
  251                     1.00   0.00  0.00  0.00  1.00  0.00  0.00  0.00  0.01  0.00
  252                     1.00   0.00  0.00  0.00  1.00  0.00  0.00  0.00  0.00  0.00
  253                     1.00   0.00  0.00  0.00  1.00  0.00  0.00  0.00  0.00  0.00
  254                     1.00   0.00  0.00  0.00  1.00  0.00  0.00  0.00  0.00  0.00
  255                     1.00   0.00  0.00  0.00  1.00  0.00  0.00  0.00  0.00  0.00
  256                     1.00   0.00  0.00  0.00  1.00  0.00  0.00  0.00  0.00  0.00
  257                     1.00   0.00  0.00  0.00  1.00  0.00  0.00  0.00  0.00  0.00
  258                     1.00   0.00  0.00  0.00  1.00  0.00  0.00  0.00  0.00  0.00
  259                     1.00   0.00  0.00  0.00  1.00  0.00  0.00  0.00  0.00  0.00
  260                     1.00   0.00  0.00  0.00  1.00  0.00  0.00  0.00  0.00  0.00
  261                     1.00   0.00  0.00  0.00  1.00  0.00  0.00  0.00  0.01  0.00
  262                     1.00   0.00  0.00  0.00  1.00  0.00  0.00  0.00  0.00  0.00
  263                     1.00   0.00  0.00  0.00  1.00  0.00  0.00  0.00  0.00  0.00
  264                     1.00   0.00  0.00  0.00  1.00  0.00  0.00  0.00  0.00  0.00
  265                     1.00   0.00  0.00  0.00  1.00  0.00  0.00  0.00  0.00  0.00
  266                     1.00   0.00  0.00  0.00  1.00  0.00  0.00  0.00  0.00  0.00
  267                     1.00   0.00  0.00  0.00  1.00  0.00  0.00  0.00  0.00  0.00
  268                     1.00   0.00  0.00  0.00  1.00  0.00  0.00  0.00  0.00  0.00
  269                     1.00   0.00  0.00  0.00  1.00  0.00  0.00  0.00  0.00  0.00
  270                     1.00   0.00  0.00  0.00  1.00  0.00  0.00  0.00  0.00  0.00
  271                     1.00   0.00  0.00  0.00  1.00  0.00  0.00  0.00  0.01  0.00
  272                     1.00   0.00  0.00  0.00  1.00  0.00  0.00  0.00  0.00  0.00
  273                     1.00   0.00  0.00  0.00  1.00  0.00  0.00  0.00  0.00  0.00
  274                     1.00   0.00  0.00  0.00  1.00  0.00  0.00  0.00  0.00  0.00
  275                     1.00   0.00  0.00  0.00  1.00  0.00  0.00  0.00  0.00  0.00
  276                     1.00   0.00  0.00  0.00  1.00  0.00  0.00  0.00  0.00  0.00
  277                     1.00   0.00  0.00  0.00  1.00  0.00  0.00  0.00  0.00  0.00
  278                     1.00   0.00  0.00  0.00  1.00  0.00  0.00  0.00  0.00  0.00
  279                     1.00   0.00  0.00  0.00  1.00  0.00  0.00  0.00  0.00  0.00
  280                     1.00   0.00  0.00  0.00  1.00  0.00  0.00  0.00  0.00  0.00
  281                     1.00   0.00  0.00  0.00  1.00  0.00  0.00  0.00  0.01  0.00
  282                     1.00   0.00  0.00  0.00  1.00  0.00  0.00  0.00  0.00  0.00
  283                     1.00   0.00  0.00  0.00  1.00  0.00  0.00  0.00  0.00  0.00
  284                     1.00   0.00  0.00  0.00  1.00  0.00  0.00  0.00  0.00  0.00
  285                     1.00   0.00  0.00  0.00  1.00  0.00  0.00  0.00  0.00  0.00
  286                     1.00   0.00  0.00  0.00  1.00  0.00  0.00  0.00  0.00  0.00
  287                     1.00   0.00  0.00  0.00  1.00  0.00  0.00  0.00  0.00  0.00
  288                     1.00   0.00  0.00  0.00  1.00  0.00  0.00  0.00  0.00  0.00
  289                     1.00   0.00  0.00  0.00  1.00  0.00  0.00  0.00  0.00  0.00
  290                     1.00   0.00  0.00  0.00  1.00  0.00  0.00  0.00  0.00  0.00
  291                     1.00   0.00  0.00  0.00  1.00  0.00  0.00  0.00  0.01  0.00
  292                     1.00   0.00  0.00  0.00  1.00  0.00  0.00  0.00  0.00  0.00
  293                     1.00   0.00  0.00  0.00  1.00  0.00  0.00  0.00  0.00  0.00
  294                     1.00   0.00  0.00  0.00  1.00  0.00  0.00  0.00  0.00  0.00
  295                     1.00   0.00  0.00  0.00  1.00  0.00  0.00  0.00  0.00  0.00
  296                     1.00   0.00  0.00  0.00  1.00  0.00  0.00  0.00  0.00  0.00
  297                     1.00   0.00  0.00  0.00  1.00  0.00  0.00  0.00  0.00  0.00
  298                     1.00   0.00  0.00  0.00  1.00  0.00  0.00  0.00  0.00  0.00
  299                     1.00   0.00  0.00  0.00  1.00  0.00  0.00  0.00  0.00  0.00
  300                     1.00   0.00  0.00  0.00  1.00  0.00  0.00  0.00  0.00  0.00
  301                     1.00   0.00  0.00  0.00  1.00  0.00  0.00  0.00  0.01  0.00
  302                     1.00   0.00  0.00  0.00  1.00  0.00  0.00  0.00  0.00  0.00
  303                     1.00   0.00  0.00  0.00  1.00  0.00  0.00  0.00  0.00  0.00
  304                     1.00   0.00  0.00  0.00  1.00  0.00  0.00  0.00  0.00  0.00
  305                     1.00   0.00  0.00  0.00  1.00  0.00  0.00  0.00  0.00  0.00
  306                     1.00   0.00  0.00  0.00  1.00  0.00  0.00  0.00  0.00  0.00
  307                     1.00   0.00  0.00  0.00  1.00  0.00  0.00  0.00  0.00  0.00
  308                     1.00   0.00  0.00  0.00  1.00  0.00  0.00  0.00  0.00  0.00
  309                     1.00   0.00  0.00  0.00  1.00  0.00  0.00  0.00  0.00  0.00
  310                     1.00   0.00  0.00  0.00  1.00  0.00  0.00  0.00  0.00  0.00
  311                     1.00   0.00  0.00  0.00  1.00  0.00  0.00  0.00  0.01  0.00
  312                     1.00   0.00  0.00  0.00  1.00  0.00  0.00  0.00  0.00  0.00
  313                     1.00   0.00  0.00  0.00  1.00  0.00  0.00  0.00  0.00  0.00
  314                     1.00   0.00  0.00  0.00  1.00  0.00  0.00  0.00  0.00  0.00
  315                     1.00   0.00  0.00  0.00  1.00  0.00  0.00  0.00  0.00  0.00
  316                     1.00   0.00  0.00  0.00  1.00  0.00  0.00  0.00  0.00  0.00
  317                     1.00   0.00  0.00  0.00  1.00  0.00  0.00  0.00  0.00  0.00
  318                     1.00   0.00  0.00  0.00  1.00  0.00  0.00  0.00  0.00  0.00
  319                     1.00   0.00  0.00  0.00  1.00  0.00  0.00  0.00  0.00  0.00
  320                     1.00   0.00  0.00  0.00  1.00  0.00  0.00  0.00  0.00  0.00
  321                     1.00   0.00  0.00  0.00  1.00  0.00  0.00  0.00  0.01  0.00
  322                     1.00   0.00  0.00  0.00  1.00  0.00  0.00  0.00  0.00  0.00
  323                     1.00   0.00  0.00  0.00  1.00  0.00  0.00  0.00  0.00  0.00
  324                     1.00   0.00  0.00  0.00  1.00  0.00  0.00  0.00  0.00  0.00
  325                     1.00   0.00  0.00  0.00  1.00  0.00  0.00  0.00  0.00  0.00
  326                     1.00   0.00  0.00  0.00  1.00  0.00  0.00  0.00  0.00  0.00
  327                     1.00   0.00  0.00  0.00  1.00  0.00  0.00  0.00  0.00  0.00
  328                     1.00   0.00  0.00  0.00  1.00  0.00  0.00  0.00  0.00  0.00
  329                     1.00   0.00  0.00  0.00  1.00  0.00  0.00  0.00  0.00  0.00
  330                     1.00   0.00  0.00  0.00  1.00  0.00  0.00  0.00  0.00  0.00
  331                     1.00   0.00  0.00  0.00  1.00  0.00  0.00  0.00  0.01  0.00
  332                     1.00   0.00  0.00  0.00  1.00  0.00  0.00  0.00  0.00  0.00
  333                     1.00   0.00  0.00  0.00  1.00  0.00  0.00  0.00  0.00  0.00
  334                     1.00   0.00  0.00  0.00  1.00  0.00  0.00  0.00  0.00  0.00
  335                     1.00   0.00  0.00  0.00  1.00  0.00  0.00  0.00  0.00  0.00
  336                     1.00   0.00  0.00  0.00  1.00  0.00  0.00  0.00  0.00  0.00
  337                     1.00   0.00  0.00  0.00  1.00  0.00  0.00  0.00  0.00  0.00
  338                     1.00   0.00  0.00  0.00  1.00  0.00  0.00  0.00  0.00  0.00
  339                     1.00   0.00  0.00  0.00  1.00  0.00  0.00  0.00  0.00  0.00
  340                     1.00   0.00  0.00  0.00  1.00  0.00  0.00  0.00  0.00  0.00
  341                     1.00   0.00  0.00  0.00  1.00  0.00  0.00  0.00  0.01  0.00
  
  
  *************************
  Conduit Surcharge Summary
  *************************
  
  ----------------------------------------------------------------------------
                                                           Hours        Hours 
                         --------- Hours Full --------   Above Full   Capacity
  Conduit                Both Ends  Upstream  Dnstream   Normal Flow   Limited
  ----------------------------------------------------------------------------
  121                         1.09      1.09      1.15      0.01         0.01
  122                         1.15      1.15      1.21      0.01         0.01
  123                         1.21      1.21      1.27      0.01         0.01
  124                         1.27      1.27      1.35      0.01         0.01
  125                         1.35      1.35      1.44      0.01         0.01
  126                         1.44      1.44      1.54      0.01         0.01
  127                         1.54      1.54      1.66      0.01         0.01
  128                         1.66      1.66      1.80      0.01         0.01
  129                         1.80      1.80      1.95      0.01         0.01
  130                         1.95      1.95      2.13      0.01         0.01
  131                         1.15      1.15      1.21      0.01         0.01
  132                         1.21      1.21      1.28      0.01         0.01
  133                         1.28      1.28      1.35      0.01         0.01
  134                         1.35      1.35      1.44      0.01         0.01
  135                         1.44      1.44      1.54      0.01         0.01
  136                         1.54      1.54      1.66      0.01         0.01
  137                         1.66      1.66      1.80      0.01         0.01
  138                         1.80      1.80      1.95      0.01         0.01
  139                         1.95      1.95      2.13      0.01         0.01
  140                         2.13      2.13      2.32      0.01         0.01
  141                         1.21      1.21      1.28      0.01         0.01
  142                         1.28      1.28      1.35      0.01         0.01
  143                         1.35      1.35      1.44      0.01         0.01
  144                         1.44      1.44      1.54      0.01         0.01
  145                         1.54      1.54      1.66      0.01         0.01
  146                         1.66      1.66      1.80      0.01         0.01
  147                         1.80      1.80      1.95      0.01         0.01
  148                         1.95      1.95      2.12      0.01         0.01
  149                         2.12      2.12      2.32      0.01         0.01
  150                         2.32      2.32      2.54      0.01         0.01
  151                         1.27      1.27      1.35      0.01         0.01
  152                         1.35      1.35      1.44      0.01         0.01
  153                         1.44      1.44      1.54      0.01         0.01
  154                         1.54      1.54      1.66      0.01         0.01
  155                         1.66      1.66      1.80      0.01         0.01
  156                         1.80      1.80      1.95      0.01         0.01
  157                         1.95      1.95      2.12      0.01         0.01
  158                         2.12      2.12      2.32      0.01         0.01
  159                         2.32      2.32      2.54      0.01         0.01
  160                         2.54      2.54      2.78      0.01         0.01
  161                         1.35      1.35      1.44      0.01         0.01
  162                         1.44      1.44      1.54      0.01         0.01
  163                         1.54      1.54      1.66      0.01         0.01
  164                         1.66      1.66      1.80      0.01         0.01
  165                         1.80      1.80      1.95      0.01         0.01
  166                         1.95      1.95      2.12      0.01         0.01
  167                         2.12      2.12      2.32      0.01         0.01
  168                         2.32      2.32      2.54      0.01         0.01
  169                         2.54      2.54      2.78      0.01         0.01
  170                         2.78      2.78      3.03      0.01         0.01
  171                         1.44      1.44      1.54      0.01         0.01
  172                         1.54      1.54      1.66      0.01         0.01
  173                         1.66      1.66      1.80      0.01         0.01
  174                         1.80      1.80      1.95      0.01         0.01
  175                         1.95      1.95      2.12      0.01         0.01
  176                         2.12      2.12      2.32      0.01         0.01
  177                         2.32      2.32      2.54      0.01         0.01
  178                         2.54      2.54      2.77      0.01         0.01
  179                         2.77      2.77      3.02      0.01         0.01
  180                         3.02      3.02      3.28      0.01         0.01
  181                         1.54      1.54      1.66      0.01         0.01
  182                         1.66      1.66      1.80      0.01         0.01
  183                         1.80      1.80      1.95      0.01         0.01
  184                         1.95      1.95      2.12      0.01         0.01
  185                         2.12      2.12      2.32      0.01         0.01
  186                         2.32      2.32      2.53      0.01         0.01
  187                         2.53      2.53      2.77      0.01         0.01
  188                         2.77      2.77      3.01      0.01         0.01
  189                         3.01      3.01      3.26      0.01         0.01
  190                         3.26      3.26      3.52      0.01         0.01
  191                         1.66      1.66      1.80      0.01         0.01
  192                         1.80      1.80      1.95      0.01         0.01
  193                         1.95      1.95      2.12      0.01         0.01
  194                         2.12      2.12      2.32      0.01         0.01
  195                         2.32      2.32      2.54      0.01         0.01
  196                         2.54      2.54      2.77      0.01         0.01
  197                         2.77      2.77      3.00      0.01         0.01
  198                         3.00      3.00      3.25      0.01         0.01
  199                         3.25      3.25      3.50      0.01         0.01
  200                         3.50      3.50      3.76      0.01         0.01
  201                         1.80      1.80      1.95      0.01         0.01
  202                         1.95      1.95      2.12      0.01         0.01
  203                         2.12      2.12      2.32      0.01         0.01
  204                         2.32      2.32      2.54      0.01         0.01
  205                         2.54      2.54      2.77      0.01         0.01
  206                         2.77      2.77      3.01      0.01         0.01
  207                         3.01      3.01      3.25      0.01         0.01
  208                         3.25      3.25      3.49      0.01         0.01
  209                         3.49      3.49      3.72      0.01         0.01
  210                         3.72      3.72      3.97      0.01         0.01
  211                         1.95      1.95      2.13      0.01         0.01
  212                         2.13      2.13      2.32      0.01         0.01
  213                         2.32      2.32      2.54      0.01         0.01
  214                         2.54      2.54      2.78      0.01         0.01
  215                         2.78      2.78      3.02      0.01         0.01
  216                         3.02      3.02      3.26      0.01         0.01
  217                         3.26      3.26      3.50      0.01         0.01
  218                         3.50      3.50      3.72      0.01         0.01
  219                         3.72      3.72      3.93      0.01         0.01
  220                         3.93      3.93      4.13      0.58         0.01
  221                         2.13      2.13      2.32      0.01         0.01
  222                         2.32      2.32      2.54      0.01         0.01
  223                         2.54      2.54      2.78      0.01         0.01
  224                         2.78      2.78      3.03      0.01         0.01
  225                         3.03      3.03      3.28      0.01         0.01
  226                         3.28      3.28      3.52      0.01         0.01
  227                         3.52      3.52      3.76      0.01         0.01
  228                         3.76      3.76      3.97      0.01         0.01
  229                         3.97      3.97      4.13      1.55         1.49
  230                         4.03      4.13      4.03      4.58         4.09
  231                         2.13      2.13      2.32      0.01         0.01
  232                         2.32      2.32      2.54      0.01         0.01
  233                         2.54      2.54      2.78      0.01         0.01
  234                         2.78      2.78      3.03      0.01         0.01
  235                         3.03      3.03      3.28      0.01         0.01
  236                         3.28      3.28      3.52      0.01         0.01
  237                         3.52      3.52      3.76      0.01         0.01
  238                         3.76      3.76      3.97      0.01         0.01
  239                         3.97      3.97      4.13      1.55         1.49
  240                         4.03      4.13      4.03      4.58         4.09
  241                         0.01      4.03      0.01      5.82         2.12
  242                         1.09      1.09      1.15      0.01         0.01
  243                         1.15      1.15      1.21      0.01         0.01
  244                         1.21      1.21      1.27      0.01         0.01
  245                         1.27      1.27      1.35      0.01         0.01
  246                         1.35      1.35      1.44      0.01         0.01
  247                         1.44      1.44      1.54      0.01         0.01
  248                         1.54      1.54      1.66      0.01         0.01
  249                         1.66      1.66      1.80      0.01         0.01
  250                         1.80      1.80      1.95      0.01         0.01
  251                         1.95      1.95      2.13      0.01         0.01
  252                         1.15      1.15      1.21      0.01         0.01
  253                         1.21      1.21      1.28      0.01         0.01
  254                         1.28      1.28      1.35      0.01         0.01
  255                         1.35      1.35      1.44      0.01         0.01
  256                         1.44      1.44      1.54      0.01         0.01
  257                         1.54      1.54      1.66      0.01         0.01
  258                         1.66      1.66      1.80      0.01         0.01
  259                         1.80      1.80      1.95      0.01         0.01
  260                         1.95      1.95      2.13      0.01         0.01
  261                         2.13      2.13      2.32      0.01         0.01
  262                         1.21      1.21      1.28      0.01         0.01
  263                         1.28      1.28      1.35      0.01         0.01
  264                         1.35      1.35      1.44      0.01         0.01
  265                         1.44      1.44      1.54      0.01         0.01
  266                         1.54      1.54      1.66      0.01         0.01
  267                         1.66      1.66      1.80      0.01         0.01
  268                         1.80      1.80      1.95      0.01         0.01
  269                         1.95      1.95      2.12      0.01         0.01
  270                         2.12      2.12      2.32      0.01         0.01
  271                         2.32      2.32      2.54      0.01         0.01
  272                         1.27      1.27      1.35      0.01         0.01
  273                         1.35      1.35      1.44      0.01         0.01
  274                         1.44      1.44      1.54      0.01         0.01
  275                         1.54      1.54      1.66      0.01         0.01
  276                         1.66      1.66      1.80      0.01         0.01
  277                         1.80      1.80      1.95      0.01         0.01
  278                         1.95      1.95      2.12      0.01         0.01
  279                         2.12      2.12      2.32      0.01         0.01
  280                         2.32      2.32      2.54      0.01         0.01
  281                         2.54      2.54      2.78      0.01         0.01
  282                         1.35      1.35      1.44      0.01         0.01
  283                         1.44      1.44      1.54      0.01         0.01
  284                         1.54      1.54      1.66      0.01         0.01
  285                         1.66      1.66      1.80      0.01         0.01
  286                         1.80      1.80      1.95      0.01         0.01
  287                         1.95      1.95      2.12      0.01         0.01
  288                         2.12      2.12      2.32      0.01         0.01
  289                         2.32      2.32      2.54      0.01         0.01
  290                         2.54      2.54      2.78      0.01         0.01
  291                         2.78      2.78      3.03      0.01         0.01
  292                         1.44      1.44      1.54      0.01         0.01
  293                         1.54      1.54      1.66      0.01         0.01
  294                         1.66      1.66      1.80      0.01         0.01
  295                         1.80      1.80      1.95      0.01         0.01
  296                         1.95      1.95      2.12      0.01         0.01
  297                         2.12      2.12      2.32      0.01         0.01
  298                         2.32      2.32      2.54      0.01         0.01
  299                         2.54      2.54      2.77      0.01         0.01
  300                         2.77      2.77      3.02      0.01         0.01
  301                         3.02      3.02      3.28      0.01         0.01
  302                         1.54      1.54      1.66      0.01         0.01
  303                         1.66      1.66      1.80      0.01         0.01
  304                         1.80      1.80      1.95      0.01         0.01
  305                         1.95      1.95      2.12      0.01         0.01
  306                         2.12      2.12      2.32      0.01         0.01
  307                         2.32      2.32      2.53      0.01         0.01
  308                         2.53      2.53      2.77      0.01         0.01
  309                         2.77      2.77      3.01      0.01         0.01
  310                         3.01      3.01      3.26      0.01         0.01
  311                         3.26      3.26      3.52      0.01         0.01
  312                         1.66      1.66      1.80      0.01         0.01
  313                         1.80      1.80      1.95      0.01         0.01
  314                         1.95      1.95      2.12      0.01         0.01
  315                         2.12      2.12      2.32      0.01         0.01
  316                         2.32      2.32      2.54      0.01         0.01
  317                         2.54      2.54      2.77      0.01         0.01
  318                         2.77      2.77      3.00      0.01         0.01
  319                         3.00      3.00      3.25      0.01         0.01
  320                         3.25      3.25      3.50      0.01         0.01
  321                         3.50      3.50      3.76      0.01         0.01
  322                         1.80      1.80      1.95      0.01         0.01
  323                         1.95      1.95      2.12      0.01         0.01
  324                         2.12      2.12      2.32      0.01         0.01
  325                         2.32      2.32      2.54      0.01         0.01
  326                         2.54      2.54      2.77      0.01         0.01
  327                         2.77      2.77      3.01      0.01         0.01
  328                         3.01      3.01      3.25      0.01         0.01
  329                         3.25      3.25      3.49      0.01         0.01
  330                         3.49      3.49      3.72      0.01         0.01
  331                         3.72      3.72      3.97      0.01         0.01
  332                         1.95      1.95      2.13      0.01         0.01
  333                         2.13      2.13      2.32      0.01         0.01
  334                         2.32      2.32      2.54      0.01         0.01
  335                         2.54      2.54      2.78      0.01         0.01
  336                         2.78      2.78      3.02      0.01         0.01
  337                         3.02      3.02      3.26      0.01         0.01
  338                         3.26      3.26      3.50      0.01         0.01
  339                         3.50      3.50      3.72      0.01         0.01
  340                         3.72      3.72      3.93      0.01         0.01
  341                         3.93      3.93      4.13      0.58         0.01
  

  Analysis begun on:  Wed Dec 14 08:46:18 2022
  Analysis ended on:  Wed Dec 14 08:46:20 2022
  Total elapsed time: 00:00:02