
  EPA STORM WATER MANAGEMENT MODEL - VERSION 5.1 (Build 5.1.015)
  --------------------------------------------------------------

  WARNING 04: minimum elevation drop used for Conduit 241
  
  *********************************************************
  NOTE: The summary statistics displayed in this report are
  based on results found at every computational time step,  
  not just on results from each reporting time step.
  *********************************************************
  
  ****************
  Analysis Options
  ****************
  Flow Units ............... CMS
  Process Models:
    Rainfall/Runoff ........ NO
    RDII ................... NO
    Snowmelt ............... NO
    Groundwater ............ NO
    Flow Routing ........... YES
    Ponding Allowed ........ NO
    Water Quality .......... NO
  Flow Routing Method ...... DYNWAVE
  Surcharge Method ......... SLOT
  Starting Date ............ 10/31/2022 00:00:00
  Ending Date .............. 10/31/2022 06:00:00
  Antecedent Dry Days ...... 0.0
  Report Time Step ......... 00:00:10
  Routing Time Step ........ 1.00 sec
  Variable Time Step ....... NO
  Maximum Trials ........... 8
  Number of Threads ........ 6
  Head Tolerance ........... 0.001500 m
  
  
  **************************        Volume        Volume
  Flow Routing Continuity        hectare-m      10^6 ltr
  **************************     ---------     ---------
  Dry Weather Inflow .......         0.000         0.000
  Wet Weather Inflow .......         0.000         0.000
  Groundwater Inflow .......         0.000         0.000
  RDII Inflow ..............         0.000         0.000
  External Inflow ..........         4.541        45.406
  External Outflow .........         4.362        43.617
  Flooding Loss ............         0.000         0.000
  Evaporation Loss .........         0.000         0.000
  Exfiltration Loss ........         0.000         0.000
  Initial Stored Volume ....         0.000         0.000
  Final Stored Volume ......         0.183         1.833
  Continuity Error (%) .....        -0.096
  
  
  *************************
  Highest Continuity Errors
  *************************
  Node J09 (1.20%)
  
  
  ********************************
  Highest Flow Instability Indexes
  ********************************
  All links are stable.
  
  
  *************************
  Routing Time Step Summary
  *************************
  Minimum Time Step           :     1.00 sec
  Average Time Step           :     1.00 sec
  Maximum Time Step           :     1.00 sec
  Percent in Steady State     :     0.00
  Average Iterations per Step :     2.00
  Percent Not Converging      :     0.00
  
  
  ******************
  Node Depth Summary
  ******************
  
  ---------------------------------------------------------------------------------
                                 Average  Maximum  Maximum  Time of Max    Reported
                                   Depth    Depth      HGL   Occurrence   Max Depth
  Node                 Type       Meters   Meters   Meters  days hr:min      Meters
  ---------------------------------------------------------------------------------
  A00                  JUNCTION     0.05     0.05    10.05     0  00:26        0.05
  A01                  JUNCTION     0.05     0.05     9.55     0  00:38        0.05
  A02                  JUNCTION     0.06     0.06     9.06     0  00:42        0.06
  A03                  JUNCTION     0.06     0.06     8.56     0  00:42        0.06
  A04                  JUNCTION     0.06     0.06     8.06     0  00:45        0.06
  A05                  JUNCTION     0.06     0.06     7.56     0  00:45        0.06
  A06                  JUNCTION     0.06     0.06     7.06     0  00:46        0.06
  A07                  JUNCTION     0.06     0.06     6.56     0  00:47        0.06
  A08                  JUNCTION     0.06     0.06     6.06     0  00:47        0.06
  A09                  JUNCTION     0.06     0.06     5.56     0  00:49        0.06
  A10                  JUNCTION     0.09     0.09     5.09     0  00:51        0.09
  B00                  JUNCTION     0.05     0.05     9.55     0  00:38        0.05
  B01                  JUNCTION     0.07     0.07     9.07     0  00:43        0.07
  B02                  JUNCTION     0.08     0.08     8.58     0  00:46        0.08
  B03                  JUNCTION     0.08     0.08     8.08     0  00:48        0.08
  B04                  JUNCTION     0.08     0.08     7.58     0  00:49        0.08
  B05                  JUNCTION     0.09     0.09     7.09     0  00:50        0.09
  B06                  JUNCTION     0.09     0.09     6.59     0  00:52        0.09
  B07                  JUNCTION     0.09     0.09     6.09     0  00:53        0.09
  B08                  JUNCTION     0.09     0.09     5.59     0  00:55        0.09
  B09                  JUNCTION     0.09     0.09     5.09     0  00:56        0.09
  B10                  JUNCTION     0.13     0.14     4.64     0  00:58        0.14
  C00                  JUNCTION     0.06     0.06     9.06     0  00:42        0.06
  C01                  JUNCTION     0.08     0.08     8.58     0  00:46        0.08
  C02                  JUNCTION     0.09     0.09     8.09     0  00:48        0.09
  C03                  JUNCTION     0.09     0.10     7.60     0  00:50        0.10
  C04                  JUNCTION     0.10     0.10     7.10     0  00:52        0.10
  C05                  JUNCTION     0.10     0.10     6.60     0  00:53        0.10
  C06                  JUNCTION     0.10     0.10     6.10     0  00:54        0.10
  C07                  JUNCTION     0.10     0.10     5.60     0  00:55        0.10
  C08                  JUNCTION     0.10     0.11     5.11     0  00:56        0.11
  C09                  JUNCTION     0.10     0.11     4.61     0  00:58        0.11
  C10                  JUNCTION     0.18     0.18     4.18     0  00:59        0.18
  D00                  JUNCTION     0.06     0.06     8.56     0  00:42        0.06
  D01                  JUNCTION     0.08     0.08     8.08     0  00:48        0.08
  D02                  JUNCTION     0.09     0.10     7.60     0  00:50        0.10
  D03                  JUNCTION     0.10     0.10     7.10     0  00:52        0.10
  D04                  JUNCTION     0.11     0.11     6.61     0  00:53        0.11
  D05                  JUNCTION     0.11     0.11     6.11     0  00:55        0.11
  D06                  JUNCTION     0.12     0.12     5.62     0  00:55        0.12
  D07                  JUNCTION     0.12     0.12     5.12     0  00:57        0.12
  D08                  JUNCTION     0.12     0.12     4.62     0  00:58        0.12
  D09                  JUNCTION     0.12     0.12     4.12     0  00:59        0.12
  D10                  JUNCTION     0.22     0.22     3.72     0  01:01        0.22
  E00                  JUNCTION     0.06     0.06     8.06     0  00:45        0.06
  E01                  JUNCTION     0.08     0.08     7.58     0  00:49        0.08
  E02                  JUNCTION     0.10     0.10     7.10     0  00:52        0.10
  E03                  JUNCTION     0.11     0.11     6.61     0  00:53        0.11
  E04                  JUNCTION     0.12     0.12     6.12     0  00:55        0.12
  E05                  JUNCTION     0.12     0.12     5.62     0  00:56        0.12
  E06                  JUNCTION     0.13     0.13     5.13     0  00:57        0.13
  E07                  JUNCTION     0.13     0.13     4.63     0  00:58        0.13
  E08                  JUNCTION     0.13     0.13     4.13     0  00:59        0.13
  E09                  JUNCTION     0.13     0.13     3.63     0  01:00        0.13
  E10                  JUNCTION     0.26     0.27     3.27     0  01:02        0.27
  F00                  JUNCTION     0.06     0.06     7.56     0  00:45        0.06
  F01                  JUNCTION     0.09     0.09     7.09     0  00:50        0.09
  F02                  JUNCTION     0.10     0.10     6.60     0  00:53        0.10
  F03                  JUNCTION     0.11     0.11     6.11     0  00:55        0.11
  F04                  JUNCTION     0.12     0.12     5.62     0  00:56        0.12
  F05                  JUNCTION     0.13     0.13     5.13     0  00:57        0.13
  F06                  JUNCTION     0.13     0.14     4.64     0  00:58        0.14
  F07                  JUNCTION     0.14     0.14     4.14     0  00:59        0.14
  F08                  JUNCTION     0.14     0.14     3.64     0  01:01        0.14
  F09                  JUNCTION     0.14     0.14     3.14     0  01:02        0.14
  F10                  JUNCTION     0.30     0.31     2.81     0  01:02        0.31
  G00                  JUNCTION     0.06     0.06     7.06     0  00:46        0.06
  G01                  JUNCTION     0.09     0.09     6.59     0  00:52        0.09
  G02                  JUNCTION     0.10     0.10     6.10     0  00:54        0.10
  G03                  JUNCTION     0.12     0.12     5.62     0  00:55        0.12
  G04                  JUNCTION     0.13     0.13     5.13     0  00:57        0.13
  G05                  JUNCTION     0.13     0.14     4.64     0  00:58        0.14
  G06                  JUNCTION     0.14     0.14     4.14     0  00:59        0.14
  G07                  JUNCTION     0.14     0.15     3.65     0  01:01        0.15
  G08                  JUNCTION     0.15     0.15     3.15     0  01:02        0.15
  G09                  JUNCTION     0.15     0.15     2.65     0  01:02        0.15
  G10                  JUNCTION     0.35     0.35     2.35     0  01:03        0.35
  H00                  JUNCTION     0.06     0.06     6.56     0  00:47        0.06
  H01                  JUNCTION     0.09     0.09     6.09     0  00:53        0.09
  H02                  JUNCTION     0.10     0.10     5.60     0  00:55        0.10
  H03                  JUNCTION     0.12     0.12     5.12     0  00:57        0.12
  H04                  JUNCTION     0.13     0.13     4.63     0  00:58        0.13
  H05                  JUNCTION     0.14     0.14     4.14     0  00:59        0.14
  H06                  JUNCTION     0.14     0.15     3.65     0  01:01        0.15
  H07                  JUNCTION     0.15     0.15     3.15     0  01:01        0.15
  H08                  JUNCTION     0.15     0.16     2.66     0  01:02        0.16
  H09                  JUNCTION     0.16     0.16     2.16     0  01:03        0.16
  H10                  JUNCTION     0.39     0.40     1.90     0  01:04        0.40
  I00                  JUNCTION     0.06     0.06     6.06     0  00:47        0.06
  I01                  JUNCTION     0.09     0.09     5.59     0  00:55        0.09
  I02                  JUNCTION     0.10     0.11     5.11     0  00:56        0.11
  I03                  JUNCTION     0.12     0.12     4.62     0  00:58        0.12
  I04                  JUNCTION     0.13     0.13     4.13     0  00:59        0.13
  I05                  JUNCTION     0.14     0.14     3.64     0  01:01        0.14
  I06                  JUNCTION     0.15     0.15     3.15     0  01:02        0.15
  I07                  JUNCTION     0.15     0.16     2.66     0  01:02        0.16
  I08                  JUNCTION     0.16     0.16     2.16     0  01:03        0.16
  I09                  JUNCTION     0.16     0.17     1.67     0  01:04        0.17
  I10                  JUNCTION     0.43     0.44     1.44     0  01:05        0.44
  J00                  JUNCTION     0.06     0.06     5.56     0  00:49        0.06
  J01                  JUNCTION     0.09     0.09     5.09     0  00:56        0.09
  J02                  JUNCTION     0.10     0.11     4.61     0  00:58        0.11
  J03                  JUNCTION     0.12     0.12     4.12     0  00:59        0.12
  J04                  JUNCTION     0.13     0.13     3.63     0  01:00        0.13
  J05                  JUNCTION     0.14     0.14     3.14     0  01:02        0.14
  J06                  JUNCTION     0.15     0.15     2.65     0  01:02        0.15
  J07                  JUNCTION     0.16     0.16     2.16     0  01:03        0.16
  J08                  JUNCTION     0.16     0.17     1.67     0  01:04        0.17
  J09                  JUNCTION     0.44     0.47     1.47     0  00:39        0.47
  J10                  JUNCTION     0.93     0.98     1.48     0  00:38        0.98
  K00                  JUNCTION     0.09     0.09     5.09     0  00:51        0.09
  K01                  JUNCTION     0.13     0.14     4.64     0  00:58        0.14
  K02                  JUNCTION     0.18     0.18     4.18     0  00:59        0.18
  K03                  JUNCTION     0.22     0.22     3.72     0  01:01        0.22
  K04                  JUNCTION     0.26     0.27     3.27     0  01:02        0.27
  K05                  JUNCTION     0.30     0.31     2.81     0  01:03        0.31
  K06                  JUNCTION     0.35     0.35     2.35     0  01:03        0.35
  K07                  JUNCTION     0.39     0.40     1.90     0  01:04        0.40
  K08                  JUNCTION     0.43     0.44     1.44     0  01:05        0.44
  K09                  JUNCTION     0.93     0.98     1.48     0  00:38        0.98
  K10                  JUNCTION     1.32     1.38     1.38     0  00:38        1.38
  Outfall              OUTFALL      0.80     0.83     0.83     0  00:38        0.83
  
  
  *******************
  Node Inflow Summary
  *******************
  
  -------------------------------------------------------------------------------------------------
                                  Maximum  Maximum                  Lateral       Total        Flow
                                  Lateral    Total  Time of Max      Inflow      Inflow     Balance
                                   Inflow   Inflow   Occurrence      Volume      Volume       Error
  Node                 Type           CMS      CMS  days hr:min    10^6 ltr    10^6 ltr     Percent
  -------------------------------------------------------------------------------------------------
  A00                  JUNCTION     0.017    0.017     0  00:00       0.375       0.375       0.314
  A01                  JUNCTION     0.017    0.026     0  00:26       0.375       0.562       0.433
  A02                  JUNCTION     0.017    0.030     0  00:38       0.375       0.655       0.417
  A03                  JUNCTION     0.017    0.033     0  00:42       0.375       0.701       0.409
  A04                  JUNCTION     0.017    0.034     0  00:42       0.375       0.725       0.405
  A05                  JUNCTION     0.017    0.034     0  00:45       0.375       0.736       0.404
  A06                  JUNCTION     0.017    0.034     0  00:45       0.375       0.742       0.403
  A07                  JUNCTION     0.017    0.035     0  00:46       0.375       0.745       0.402
  A08                  JUNCTION     0.017    0.035     0  00:47       0.375       0.746       0.402
  A09                  JUNCTION     0.017    0.035     0  00:47       0.375       0.747       0.408
  A10                  JUNCTION     0.017    0.035     0  00:49       0.375       0.747       0.433
  B00                  JUNCTION     0.017    0.026     0  00:26       0.375       0.562       0.433
  B01                  JUNCTION     0.017    0.043     0  00:38       0.375       0.935       0.504
  B02                  JUNCTION     0.017    0.054     0  00:43       0.375        1.17       0.474
  B03                  JUNCTION     0.017    0.061     0  00:46       0.375        1.31       0.460
  B04                  JUNCTION     0.017    0.065     0  00:48       0.375        1.39       0.451
  B05                  JUNCTION     0.017    0.067     0  00:49       0.375        1.43       0.447
  B06                  JUNCTION     0.017    0.068     0  00:50       0.375        1.46       0.445
  B07                  JUNCTION     0.017    0.069     0  00:52       0.375        1.47       0.444
  B08                  JUNCTION     0.017    0.069     0  00:53       0.375        1.48       0.443
  B09                  JUNCTION     0.017    0.069     0  00:55       0.375        1.48       0.448
  B10                  JUNCTION     0.017    0.087     0  00:56       0.375        1.86       0.504
  C00                  JUNCTION     0.017    0.030     0  00:38       0.375       0.655       0.417
  C01                  JUNCTION     0.017    0.054     0  00:43       0.375        1.17       0.474
  C02                  JUNCTION     0.017    0.072     0  00:46       0.375        1.54       0.438
  C03                  JUNCTION     0.017    0.084     0  00:48       0.375        1.79       0.419
  C04                  JUNCTION     0.017    0.091     0  00:50       0.375        1.96       0.410
  C05                  JUNCTION     0.017    0.097     0  00:52       0.375        2.06       0.403
  C06                  JUNCTION     0.017    0.100     0  00:53       0.375        2.13       0.400
  C07                  JUNCTION     0.017    0.102     0  00:54       0.375        2.17       0.398
  C08                  JUNCTION     0.017    0.103     0  00:55       0.375        2.19       0.396
  C09                  JUNCTION     0.017    0.103     0  00:56       0.375         2.2       0.401
  C10                  JUNCTION     0.017    0.156     0  00:58       0.375        3.32       0.426
  D00                  JUNCTION     0.017    0.033     0  00:42       0.375       0.701       0.409
  D01                  JUNCTION     0.017    0.061     0  00:46       0.375        1.31       0.460
  D02                  JUNCTION     0.017    0.084     0  00:48       0.375        1.79       0.419
  D03                  JUNCTION     0.017    0.101     0  00:50       0.375        2.16       0.398
  D04                  JUNCTION     0.017    0.114     0  00:52       0.375        2.42       0.385
  D05                  JUNCTION     0.017    0.122     0  00:53       0.375        2.61       0.377
  D06                  JUNCTION     0.017    0.128     0  00:55       0.375        2.73       0.373
  D07                  JUNCTION     0.017    0.132     0  00:55       0.375        2.82       0.370
  D08                  JUNCTION     0.017    0.135     0  00:57       0.375        2.87       0.368
  D09                  JUNCTION     0.017    0.136     0  00:58       0.375         2.9       0.373
  D10                  JUNCTION     0.017    0.241     0  00:59       0.375        5.13       0.376
  E00                  JUNCTION     0.017    0.034     0  00:42       0.375       0.725       0.405
  E01                  JUNCTION     0.017    0.065     0  00:48       0.375        1.39       0.451
  E02                  JUNCTION     0.017    0.091     0  00:50       0.375        1.96       0.410
  E03                  JUNCTION     0.017    0.114     0  00:52       0.375        2.42       0.385
  E04                  JUNCTION     0.017    0.131     0  00:53       0.375        2.79       0.371
  E05                  JUNCTION     0.017    0.144     0  00:55       0.375        3.06       0.361
  E06                  JUNCTION     0.017    0.154     0  00:56       0.375        3.26       0.354
  E07                  JUNCTION     0.017    0.160     0  00:57       0.375         3.4       0.350
  E08                  JUNCTION     0.017    0.165     0  00:58       0.375         3.5       0.348
  E09                  JUNCTION     0.017    0.168     0  00:59       0.375        3.57       0.352
  E10                  JUNCTION     0.017    0.343     0  01:01       0.375        7.26       0.341
  F00                  JUNCTION     0.017    0.034     0  00:45       0.375       0.736       0.404
  F01                  JUNCTION     0.017    0.067     0  00:49       0.375        1.43       0.447
  F02                  JUNCTION     0.017    0.097     0  00:52       0.375        2.06       0.403
  F03                  JUNCTION     0.017    0.122     0  00:53       0.375        2.61       0.377
  F04                  JUNCTION     0.017    0.144     0  00:55       0.375        3.06       0.361
  F05                  JUNCTION     0.017    0.161     0  00:56       0.375        3.43       0.350
  F06                  JUNCTION     0.017    0.175     0  00:57       0.375        3.71       0.342
  F07                  JUNCTION     0.017    0.185     0  00:58       0.375        3.92       0.337
  F08                  JUNCTION     0.017    0.192     0  00:59       0.375        4.07       0.333
  F09                  JUNCTION     0.017    0.198     0  01:01       0.375        4.18       0.338
  F10                  JUNCTION     0.017    0.459     0  01:02       0.375         9.7       0.315
  G00                  JUNCTION     0.017    0.034     0  00:45       0.375       0.742       0.403
  G01                  JUNCTION     0.017    0.068     0  00:50       0.375        1.46       0.445
  G02                  JUNCTION     0.017    0.100     0  00:53       0.375        2.13       0.400
  G03                  JUNCTION     0.017    0.128     0  00:55       0.375        2.73       0.373
  G04                  JUNCTION     0.017    0.154     0  00:56       0.375        3.26       0.354
  G05                  JUNCTION     0.017    0.175     0  00:57       0.375        3.71       0.342
  G06                  JUNCTION     0.017    0.192     0  00:58       0.375        4.07       0.333
  G07                  JUNCTION     0.017    0.206     0  01:00       0.375        4.36       0.327
  G08                  JUNCTION     0.017    0.217     0  01:01       0.375        4.58       0.322
  G09                  JUNCTION     0.017    0.224     0  01:02       0.375        4.74       0.326
  G10                  JUNCTION     0.017    0.589     0  01:02       0.375        12.4       0.294
  H00                  JUNCTION     0.017    0.035     0  00:46       0.375       0.745       0.402
  H01                  JUNCTION     0.017    0.069     0  00:52       0.375        1.47       0.444
  H02                  JUNCTION     0.017    0.102     0  00:54       0.375        2.17       0.398
  H03                  JUNCTION     0.017    0.132     0  00:55       0.375        2.82       0.370
  H04                  JUNCTION     0.017    0.160     0  00:57       0.375         3.4       0.350
  H05                  JUNCTION     0.017    0.185     0  00:58       0.375        3.92       0.337
  H06                  JUNCTION     0.017    0.206     0  01:00       0.375        4.36       0.327
  H07                  JUNCTION     0.017    0.223     0  01:01       0.375        4.72       0.320
  H08                  JUNCTION     0.017    0.237     0  01:02       0.375        5.01       0.314
  H09                  JUNCTION     0.017    0.248     0  01:02       0.375        5.23       0.318
  H10                  JUNCTION     0.017    0.730     0  01:03       0.375        15.4       0.278
  I00                  JUNCTION     0.017    0.035     0  00:47       0.375       0.746       0.402
  I01                  JUNCTION     0.017    0.069     0  00:53       0.375        1.48       0.443
  I02                  JUNCTION     0.017    0.103     0  00:55       0.375        2.19       0.396
  I03                  JUNCTION     0.017    0.135     0  00:57       0.375        2.87       0.368
  I04                  JUNCTION     0.017    0.165     0  00:58       0.375         3.5       0.348
  I05                  JUNCTION     0.017    0.192     0  00:59       0.375        4.07       0.333
  I06                  JUNCTION     0.017    0.217     0  01:01       0.375        4.58       0.322
  I07                  JUNCTION     0.017    0.237     0  01:02       0.375        5.01       0.314
  I08                  JUNCTION     0.017    0.255     0  01:02       0.375        5.37       0.308
  I09                  JUNCTION     0.017    0.269     0  01:03       0.375        5.66       0.311
  I10                  JUNCTION     0.017    0.882     0  01:04       0.375        18.5       0.265
  J00                  JUNCTION     0.017    0.035     0  00:47       0.375       0.747       0.408
  J01                  JUNCTION     0.017    0.069     0  00:55       0.375        1.48       0.448
  J02                  JUNCTION     0.017    0.103     0  00:56       0.375         2.2       0.401
  J03                  JUNCTION     0.017    0.136     0  00:58       0.375         2.9       0.373
  J04                  JUNCTION     0.017    0.168     0  00:59       0.375        3.57       0.352
  J05                  JUNCTION     0.017    0.198     0  01:01       0.375        4.18       0.338
  J06                  JUNCTION     0.017    0.224     0  01:02       0.375        4.74       0.326
  J07                  JUNCTION     0.017    0.248     0  01:02       0.375        5.23       0.318
  J08                  JUNCTION     0.017    0.269     0  01:03       0.375        5.66       0.311
  J09                  JUNCTION     0.017    0.286     0  01:04       0.375        6.02       1.213
  J10                  JUNCTION     0.017    1.088     0  00:32       0.375        21.8       0.529
  K00                  JUNCTION     0.017    0.035     0  00:49       0.375       0.747       0.433
  K01                  JUNCTION     0.017    0.087     0  00:56       0.375        1.86       0.504
  K02                  JUNCTION     0.017    0.156     0  00:58       0.375        3.32       0.426
  K03                  JUNCTION     0.017    0.241     0  00:59       0.375        5.13       0.376
  K04                  JUNCTION     0.017    0.343     0  01:01       0.375        7.26       0.341
  K05                  JUNCTION     0.017    0.459     0  01:02       0.375         9.7       0.315
  K06                  JUNCTION     0.017    0.589     0  01:03       0.375        12.4       0.294
  K07                  JUNCTION     0.017    0.730     0  01:03       0.375        15.4       0.278
  K08                  JUNCTION     0.017    0.882     0  01:04       0.375        18.5       0.265
  K09                  JUNCTION     0.017    1.088     0  00:32       0.375        21.8       0.529
  K10                  JUNCTION     0.017    2.112     0  00:41       0.375        43.8       0.315
  Outfall              OUTFALL      0.000    2.115     0  00:38           0        43.6       0.000
  
  
  **********************
  Node Surcharge Summary
  **********************
  
  Surcharging occurs when water rises above the top of the highest conduit.
  ---------------------------------------------------------------------
                                               Max. Height   Min. Depth
                                   Hours       Above Crown    Below Rim
  Node                 Type      Surcharged         Meters       Meters
  ---------------------------------------------------------------------
  K10                  JUNCTION        5.74          0.375        8.625
  
  
  *********************
  Node Flooding Summary
  *********************
  
  No nodes were flooded.
  
  
  ***********************
  Outfall Loading Summary
  ***********************
  
  -----------------------------------------------------------
                         Flow       Avg       Max       Total
                         Freq      Flow      Flow      Volume
  Outfall Node           Pcnt       CMS       CMS    10^6 ltr
  -----------------------------------------------------------
  Outfall               99.91     2.021     2.115      43.616
  -----------------------------------------------------------
  System                99.91     2.021     2.115      43.616
  
  
  ********************
  Link Flow Summary
  ********************
  
  -----------------------------------------------------------------------------
                                 Maximum  Time of Max   Maximum    Max/    Max/
                                  |Flow|   Occurrence   |Veloc|    Full    Full
  Link                 Type          CMS  days hr:min     m/sec    Flow   Depth
  -----------------------------------------------------------------------------
  121                  CONDUIT     0.009     0  00:26      0.64    0.00    0.05
  122                  CONDUIT     0.013     0  00:38      0.73    0.01    0.06
  123                  CONDUIT     0.015     0  00:42      0.79    0.01    0.06
  124                  CONDUIT     0.016     0  00:42      0.81    0.01    0.06
  125                  CONDUIT     0.017     0  00:45      0.83    0.01    0.06
  126                  CONDUIT     0.017     0  00:45      0.83    0.01    0.06
  127                  CONDUIT     0.017     0  00:46      0.83    0.01    0.06
  128                  CONDUIT     0.017     0  00:47      0.84    0.01    0.06
  129                  CONDUIT     0.017     0  00:47      0.84    0.01    0.06
  130                  CONDUIT     0.017     0  00:49      0.64    0.01    0.08
  131                  CONDUIT     0.013     0  00:38      0.68    0.01    0.06
  132                  CONDUIT     0.022     0  00:43      0.83    0.01    0.07
  133                  CONDUIT     0.027     0  00:46      0.92    0.01    0.08
  134                  CONDUIT     0.030     0  00:48      0.97    0.01    0.08
  135                  CONDUIT     0.032     0  00:49      1.00    0.01    0.09
  136                  CONDUIT     0.033     0  00:50      1.01    0.02    0.09
  137                  CONDUIT     0.034     0  00:52      1.02    0.02    0.09
  138                  CONDUIT     0.034     0  00:53      1.03    0.02    0.09
  139                  CONDUIT     0.035     0  00:55      1.03    0.02    0.09
  140                  CONDUIT     0.035     0  00:56      0.72    0.02    0.11
  141                  CONDUIT     0.015     0  00:42      0.69    0.01    0.07
  142                  CONDUIT     0.027     0  00:46      0.87    0.01    0.08
  143                  CONDUIT     0.036     0  00:48      0.99    0.02    0.09
  144                  CONDUIT     0.042     0  00:50      1.06    0.02    0.10
  145                  CONDUIT     0.046     0  00:52      1.10    0.02    0.10
  146                  CONDUIT     0.048     0  00:53      1.13    0.02    0.10
  147                  CONDUIT     0.050     0  00:54      1.14    0.02    0.10
  148                  CONDUIT     0.051     0  00:55      1.15    0.02    0.10
  149                  CONDUIT     0.051     0  00:56      1.16    0.02    0.11
  150                  CONDUIT     0.052     0  00:58      0.75    0.02    0.14
  151                  CONDUIT     0.016     0  00:42      0.70    0.01    0.07
  152                  CONDUIT     0.030     0  00:48      0.89    0.01    0.09
  153                  CONDUIT     0.042     0  00:50      1.02    0.02    0.10
  154                  CONDUIT     0.050     0  00:52      1.11    0.02    0.11
  155                  CONDUIT     0.057     0  00:53      1.17    0.03    0.11
  156                  CONDUIT     0.061     0  00:55      1.20    0.03    0.12
  157                  CONDUIT     0.064     0  00:55      1.23    0.03    0.12
  158                  CONDUIT     0.066     0  00:57      1.25    0.03    0.12
  159                  CONDUIT     0.067     0  00:58      1.26    0.03    0.12
  160                  CONDUIT     0.068     0  00:59      0.76    0.03    0.17
  161                  CONDUIT     0.017     0  00:45      0.70    0.01    0.07
  162                  CONDUIT     0.032     0  00:49      0.89    0.01    0.09
  163                  CONDUIT     0.046     0  00:52      1.04    0.02    0.11
  164                  CONDUIT     0.057     0  00:53      1.14    0.03    0.11
  165                  CONDUIT     0.065     0  00:55      1.21    0.03    0.12
  166                  CONDUIT     0.072     0  00:56      1.26    0.03    0.13
  167                  CONDUIT     0.077     0  00:57      1.29    0.03    0.13
  168                  CONDUIT     0.080     0  00:58      1.32    0.04    0.13
  169                  CONDUIT     0.082     0  00:59      1.33    0.04    0.13
  170                  CONDUIT     0.084     0  01:00      0.75    0.04    0.20
  171                  CONDUIT     0.017     0  00:45      0.70    0.01    0.07
  172                  CONDUIT     0.033     0  00:50      0.90    0.02    0.09
  173                  CONDUIT     0.048     0  00:53      1.05    0.02    0.11
  174                  CONDUIT     0.061     0  00:55      1.16    0.03    0.12
  175                  CONDUIT     0.072     0  00:56      1.24    0.03    0.13
  176                  CONDUIT     0.081     0  00:57      1.29    0.04    0.13
  177                  CONDUIT     0.087     0  00:58      1.34    0.04    0.14
  178                  CONDUIT     0.093     0  00:59      1.37    0.04    0.14
  179                  CONDUIT     0.096     0  01:01      1.39    0.04    0.14
  180                  CONDUIT     0.099     0  01:02      0.74    0.04    0.23
  181                  CONDUIT     0.017     0  00:46      0.70    0.01    0.07
  182                  CONDUIT     0.034     0  00:52      0.90    0.02    0.10
  183                  CONDUIT     0.050     0  00:54      1.05    0.02    0.11
  184                  CONDUIT     0.064     0  00:55      1.17    0.03    0.12
  185                  CONDUIT     0.077     0  00:57      1.25    0.03    0.13
  186                  CONDUIT     0.087     0  00:58      1.32    0.04    0.14
  187                  CONDUIT     0.096     0  01:00      1.37    0.04    0.14
  188                  CONDUIT     0.103     0  01:01      1.41    0.05    0.15
  189                  CONDUIT     0.108     0  01:02      1.44    0.05    0.15
  190                  CONDUIT     0.112     0  01:02      0.72    0.05    0.25
  191                  CONDUIT     0.017     0  00:47      0.70    0.01    0.07
  192                  CONDUIT     0.034     0  00:53      0.90    0.02    0.10
  193                  CONDUIT     0.051     0  00:55      1.05    0.02    0.11
  194                  CONDUIT     0.066     0  00:57      1.17    0.03    0.12
  195                  CONDUIT     0.080     0  00:58      1.26    0.04    0.14
  196                  CONDUIT     0.093     0  00:59      1.34    0.04    0.14
  197                  CONDUIT     0.103     0  01:01      1.39    0.05    0.15
  198                  CONDUIT     0.112     0  01:01      1.44    0.05    0.16
  199                  CONDUIT     0.119     0  01:02      1.47    0.05    0.16
  200                  CONDUIT     0.124     0  01:03      0.69    0.06    0.28
  201                  CONDUIT     0.017     0  00:47      0.70    0.01    0.08
  202                  CONDUIT     0.035     0  00:55      0.90    0.02    0.10
  203                  CONDUIT     0.051     0  00:56      1.05    0.02    0.11
  204                  CONDUIT     0.067     0  00:58      1.17    0.03    0.13
  205                  CONDUIT     0.082     0  00:59      1.27    0.04    0.14
  206                  CONDUIT     0.096     0  01:01      1.35    0.04    0.15
  207                  CONDUIT     0.108     0  01:02      1.41    0.05    0.15
  208                  CONDUIT     0.119     0  01:02      1.46    0.05    0.16
  209                  CONDUIT     0.127     0  01:03      1.50    0.06    0.17
  210                  CONDUIT     0.134     0  01:04      0.67    0.06    0.30
  211                  CONDUIT     0.017     0  00:49      0.70    0.01    0.08
  212                  CONDUIT     0.035     0  00:56      0.90    0.02    0.10
  213                  CONDUIT     0.052     0  00:58      1.05    0.02    0.11
  214                  CONDUIT     0.068     0  00:59      1.17    0.03    0.13
  215                  CONDUIT     0.084     0  01:00      1.27    0.04    0.14
  216                  CONDUIT     0.099     0  01:02      1.35    0.04    0.15
  217                  CONDUIT     0.112     0  01:02      1.42    0.05    0.16
  218                  CONDUIT     0.124     0  01:03      1.47    0.06    0.16
  219                  CONDUIT     0.134     0  01:04      1.50    0.06    0.32
  220                  CONDUIT     0.189     0  00:32      0.61    0.09    0.72
  221                  CONDUIT     0.035     0  00:51      0.81    0.02    0.11
  222                  CONDUIT     0.087     0  00:58      1.10    0.04    0.16
  223                  CONDUIT     0.156     0  00:59      1.38    0.07    0.20
  224                  CONDUIT     0.241     0  01:01      1.62    0.11    0.25
  225                  CONDUIT     0.343     0  01:02      1.83    0.16    0.29
  226                  CONDUIT     0.459     0  01:03      2.02    0.21    0.33
  227                  CONDUIT     0.589     0  01:03      2.19    0.27    0.37
  228                  CONDUIT     0.730     0  01:04      2.34    0.33    0.42
  229                  CONDUIT     0.882     0  01:05      2.35    0.40    0.71
  230                  CONDUIT     1.047     0  00:41      1.33    0.48    1.00
  231                  CONDUIT     0.035     0  00:51      0.81    0.02    0.11
  232                  CONDUIT     0.087     0  00:58      1.10    0.04    0.16
  233                  CONDUIT     0.156     0  00:59      1.38    0.07    0.20
  234                  CONDUIT     0.241     0  01:01      1.62    0.11    0.25
  235                  CONDUIT     0.343     0  01:02      1.83    0.16    0.29
  236                  CONDUIT     0.459     0  01:02      2.02    0.21    0.33
  237                  CONDUIT     0.589     0  01:03      2.19    0.27    0.37
  238                  CONDUIT     0.730     0  01:04      2.34    0.33    0.42
  239                  CONDUIT     0.882     0  01:05      2.35    0.40    0.71
  240                  CONDUIT     1.047     0  00:41      1.33    0.48    1.00
  241                  CONDUIT     2.115     0  00:38      2.69   38.85    1.00
  242                  CONDUIT     0.009     0  00:26      0.64    0.00    0.05
  243                  CONDUIT     0.013     0  00:38      0.73    0.01    0.06
  244                  CONDUIT     0.015     0  00:42      0.79    0.01    0.06
  245                  CONDUIT     0.016     0  00:42      0.81    0.01    0.06
  246                  CONDUIT     0.017     0  00:45      0.83    0.01    0.06
  247                  CONDUIT     0.017     0  00:45      0.83    0.01    0.06
  248                  CONDUIT     0.017     0  00:46      0.83    0.01    0.06
  249                  CONDUIT     0.017     0  00:47      0.84    0.01    0.06
  250                  CONDUIT     0.017     0  00:47      0.84    0.01    0.06
  251                  CONDUIT     0.017     0  00:49      0.64    0.01    0.08
  252                  CONDUIT     0.013     0  00:38      0.68    0.01    0.06
  253                  CONDUIT     0.022     0  00:43      0.83    0.01    0.07
  254                  CONDUIT     0.027     0  00:46      0.92    0.01    0.08
  255                  CONDUIT     0.030     0  00:48      0.97    0.01    0.08
  256                  CONDUIT     0.032     0  00:49      1.00    0.01    0.09
  257                  CONDUIT     0.033     0  00:50      1.01    0.02    0.09
  258                  CONDUIT     0.034     0  00:52      1.02    0.02    0.09
  259                  CONDUIT     0.034     0  00:53      1.03    0.02    0.09
  260                  CONDUIT     0.035     0  00:55      1.03    0.02    0.09
  261                  CONDUIT     0.035     0  00:56      0.72    0.02    0.11
  262                  CONDUIT     0.015     0  00:42      0.69    0.01    0.07
  263                  CONDUIT     0.027     0  00:46      0.87    0.01    0.08
  264                  CONDUIT     0.036     0  00:48      0.99    0.02    0.09
  265                  CONDUIT     0.042     0  00:50      1.06    0.02    0.10
  266                  CONDUIT     0.046     0  00:52      1.10    0.02    0.10
  267                  CONDUIT     0.048     0  00:53      1.13    0.02    0.10
  268                  CONDUIT     0.050     0  00:54      1.14    0.02    0.10
  269                  CONDUIT     0.051     0  00:55      1.15    0.02    0.10
  270                  CONDUIT     0.051     0  00:56      1.16    0.02    0.11
  271                  CONDUIT     0.052     0  00:58      0.75    0.02    0.14
  272                  CONDUIT     0.016     0  00:42      0.70    0.01    0.07
  273                  CONDUIT     0.030     0  00:48      0.89    0.01    0.09
  274                  CONDUIT     0.042     0  00:50      1.02    0.02    0.10
  275                  CONDUIT     0.050     0  00:52      1.11    0.02    0.11
  276                  CONDUIT     0.057     0  00:53      1.17    0.03    0.11
  277                  CONDUIT     0.061     0  00:55      1.20    0.03    0.12
  278                  CONDUIT     0.064     0  00:55      1.23    0.03    0.12
  279                  CONDUIT     0.066     0  00:57      1.25    0.03    0.12
  280                  CONDUIT     0.067     0  00:58      1.26    0.03    0.12
  281                  CONDUIT     0.068     0  00:59      0.76    0.03    0.17
  282                  CONDUIT     0.017     0  00:45      0.70    0.01    0.07
  283                  CONDUIT     0.032     0  00:49      0.89    0.01    0.09
  284                  CONDUIT     0.046     0  00:52      1.04    0.02    0.11
  285                  CONDUIT     0.057     0  00:53      1.14    0.03    0.11
  286                  CONDUIT     0.065     0  00:55      1.21    0.03    0.12
  287                  CONDUIT     0.072     0  00:56      1.26    0.03    0.13
  288                  CONDUIT     0.077     0  00:57      1.29    0.03    0.13
  289                  CONDUIT     0.080     0  00:58      1.32    0.04    0.13
  290                  CONDUIT     0.082     0  00:59      1.33    0.04    0.13
  291                  CONDUIT     0.084     0  01:00      0.75    0.04    0.20
  292                  CONDUIT     0.017     0  00:45      0.70    0.01    0.07
  293                  CONDUIT     0.033     0  00:50      0.90    0.02    0.09
  294                  CONDUIT     0.048     0  00:53      1.05    0.02    0.11
  295                  CONDUIT     0.061     0  00:55      1.16    0.03    0.12
  296                  CONDUIT     0.072     0  00:56      1.24    0.03    0.13
  297                  CONDUIT     0.081     0  00:57      1.29    0.04    0.13
  298                  CONDUIT     0.087     0  00:58      1.34    0.04    0.14
  299                  CONDUIT     0.093     0  00:59      1.37    0.04    0.14
  300                  CONDUIT     0.096     0  01:01      1.39    0.04    0.14
  301                  CONDUIT     0.099     0  01:02      0.74    0.04    0.23
  302                  CONDUIT     0.017     0  00:46      0.70    0.01    0.07
  303                  CONDUIT     0.034     0  00:52      0.90    0.02    0.10
  304                  CONDUIT     0.050     0  00:54      1.05    0.02    0.11
  305                  CONDUIT     0.064     0  00:55      1.17    0.03    0.12
  306                  CONDUIT     0.077     0  00:57      1.25    0.03    0.13
  307                  CONDUIT     0.087     0  00:58      1.32    0.04    0.14
  308                  CONDUIT     0.096     0  01:00      1.37    0.04    0.14
  309                  CONDUIT     0.103     0  01:01      1.41    0.05    0.15
  310                  CONDUIT     0.108     0  01:02      1.44    0.05    0.15
  311                  CONDUIT     0.112     0  01:02      0.72    0.05    0.25
  312                  CONDUIT     0.017     0  00:47      0.70    0.01    0.07
  313                  CONDUIT     0.034     0  00:53      0.90    0.02    0.10
  314                  CONDUIT     0.051     0  00:55      1.05    0.02    0.11
  315                  CONDUIT     0.066     0  00:57      1.17    0.03    0.12
  316                  CONDUIT     0.080     0  00:58      1.26    0.04    0.14
  317                  CONDUIT     0.093     0  00:59      1.34    0.04    0.14
  318                  CONDUIT     0.103     0  01:01      1.39    0.05    0.15
  319                  CONDUIT     0.112     0  01:01      1.44    0.05    0.16
  320                  CONDUIT     0.119     0  01:02      1.47    0.05    0.16
  321                  CONDUIT     0.124     0  01:03      0.69    0.06    0.28
  322                  CONDUIT     0.017     0  00:47      0.70    0.01    0.08
  323                  CONDUIT     0.035     0  00:55      0.90    0.02    0.10
  324                  CONDUIT     0.051     0  00:56      1.05    0.02    0.11
  325                  CONDUIT     0.067     0  00:58      1.17    0.03    0.13
  326                  CONDUIT     0.082     0  00:59      1.27    0.04    0.14
  327                  CONDUIT     0.096     0  01:01      1.35    0.04    0.15
  328                  CONDUIT     0.108     0  01:02      1.41    0.05    0.15
  329                  CONDUIT     0.119     0  01:02      1.46    0.05    0.16
  330                  CONDUIT     0.127     0  01:03      1.50    0.06    0.17
  331                  CONDUIT     0.134     0  01:04      0.67    0.06    0.30
  332                  CONDUIT     0.017     0  00:49      0.70    0.01    0.08
  333                  CONDUIT     0.035     0  00:56      0.90    0.02    0.10
  334                  CONDUIT     0.052     0  00:58      1.05    0.02    0.11
  335                  CONDUIT     0.068     0  00:59      1.17    0.03    0.13
  336                  CONDUIT     0.084     0  01:00      1.27    0.04    0.14
  337                  CONDUIT     0.099     0  01:02      1.35    0.04    0.15
  338                  CONDUIT     0.112     0  01:02      1.42    0.05    0.16
  339                  CONDUIT     0.124     0  01:03      1.47    0.06    0.16
  340                  CONDUIT     0.134     0  01:04      1.50    0.06    0.32
  341                  CONDUIT     0.189     0  00:32      0.61    0.09    0.72
  
  
  ***************************
  Flow Classification Summary
  ***************************
  
  -------------------------------------------------------------------------------------
                      Adjusted    ---------- Fraction of Time in Flow Class ---------- 
                       /Actual         Up    Down  Sub   Sup   Up    Down  Norm  Inlet 
  Conduit               Length    Dry  Dry   Dry   Crit  Crit  Crit  Crit  Ltd   Ctrl  
  -------------------------------------------------------------------------------------
  121                     1.00   0.00  0.00  0.00  0.00  1.00  0.00  0.00  1.00  0.00
  122                     1.00   0.00  0.00  0.00  0.00  1.00  0.00  0.00  0.99  0.00
  123                     1.00   0.00  0.00  0.00  0.00  1.00  0.00  0.00  0.99  0.00
  124                     1.00   0.00  0.00  0.00  0.00  1.00  0.00  0.00  0.99  0.00
  125                     1.00   0.00  0.00  0.00  0.00  1.00  0.00  0.00  0.98  0.00
  126                     1.00   0.00  0.00  0.00  0.00  1.00  0.00  0.00  0.98  0.00
  127                     1.00   0.00  0.00  0.00  0.00  1.00  0.00  0.00  0.98  0.00
  128                     1.00   0.00  0.00  0.00  0.00  1.00  0.00  0.00  0.97  0.00
  129                     1.00   0.00  0.00  0.00  0.00  1.00  0.00  0.00  0.97  0.00
  130                     1.00   0.00  0.00  0.00  1.00  0.00  0.00  0.00  1.00  0.00
  131                     1.00   0.00  0.00  0.00  0.98  0.02  0.00  0.00  0.99  0.00
  132                     1.00   0.00  0.00  0.00  0.00  1.00  0.00  0.00  0.99  0.00
  133                     1.00   0.00  0.00  0.00  0.00  1.00  0.00  0.00  0.99  0.00
  134                     1.00   0.00  0.00  0.00  0.00  1.00  0.00  0.00  0.98  0.00
  135                     1.00   0.00  0.00  0.00  0.00  1.00  0.00  0.00  0.98  0.00
  136                     1.00   0.00  0.00  0.00  0.00  1.00  0.00  0.00  0.98  0.00
  137                     1.00   0.00  0.00  0.00  0.00  1.00  0.00  0.00  0.97  0.00
  138                     1.00   0.00  0.00  0.00  0.00  1.00  0.00  0.00  0.97  0.00
  139                     1.00   0.00  0.00  0.00  0.00  1.00  0.00  0.00  0.96  0.00
  140                     1.00   0.00  0.00  0.00  1.00  0.00  0.00  0.00  1.00  0.00
  141                     1.00   0.00  0.00  0.00  0.98  0.02  0.00  0.00  0.99  0.00
  142                     1.00   0.00  0.00  0.00  0.00  1.00  0.00  0.00  0.99  0.00
  143                     1.00   0.00  0.00  0.00  0.00  1.00  0.00  0.00  0.99  0.00
  144                     1.00   0.00  0.00  0.00  0.00  1.00  0.00  0.00  0.98  0.00
  145                     1.00   0.00  0.00  0.00  0.00  1.00  0.00  0.00  0.98  0.00
  146                     1.00   0.00  0.00  0.00  0.00  1.00  0.00  0.00  0.97  0.00
  147                     1.00   0.00  0.00  0.00  0.00  1.00  0.00  0.00  0.97  0.00
  148                     1.00   0.00  0.00  0.00  0.00  1.00  0.00  0.00  0.97  0.00
  149                     1.00   0.00  0.00  0.00  0.00  1.00  0.00  0.00  0.96  0.00
  150                     1.00   0.00  0.00  0.00  1.00  0.00  0.00  0.00  1.00  0.00
  151                     1.00   0.00  0.00  0.00  0.98  0.02  0.00  0.00  0.99  0.00
  152                     1.00   0.00  0.00  0.00  0.00  1.00  0.00  0.00  0.99  0.00
  153                     1.00   0.00  0.00  0.00  0.00  1.00  0.00  0.00  0.98  0.00
  154                     1.00   0.00  0.00  0.00  0.00  1.00  0.00  0.00  0.98  0.00
  155                     1.00   0.00  0.00  0.00  0.00  1.00  0.00  0.00  0.98  0.00
  156                     1.00   0.00  0.00  0.00  0.00  1.00  0.00  0.00  0.97  0.00
  157                     1.00   0.00  0.00  0.00  0.00  1.00  0.00  0.00  0.97  0.00
  158                     1.00   0.00  0.00  0.00  0.00  1.00  0.00  0.00  0.97  0.00
  159                     1.00   0.00  0.00  0.00  0.00  1.00  0.00  0.00  0.96  0.00
  160                     1.00   0.00  0.00  0.00  1.00  0.00  0.00  0.00  1.00  0.00
  161                     1.00   0.00  0.00  0.00  0.98  0.02  0.00  0.00  0.99  0.00
  162                     1.00   0.00  0.00  0.00  0.00  1.00  0.00  0.00  0.99  0.00
  163                     1.00   0.00  0.00  0.00  0.00  1.00  0.00  0.00  0.98  0.00
  164                     1.00   0.00  0.00  0.00  0.00  1.00  0.00  0.00  0.98  0.00
  165                     1.00   0.00  0.00  0.00  0.00  1.00  0.00  0.00  0.98  0.00
  166                     1.00   0.00  0.00  0.00  0.00  1.00  0.00  0.00  0.97  0.00
  167                     1.00   0.00  0.00  0.00  0.00  1.00  0.00  0.00  0.97  0.00
  168                     1.00   0.00  0.00  0.00  0.00  1.00  0.00  0.00  0.97  0.00
  169                     1.00   0.00  0.00  0.00  0.00  1.00  0.00  0.00  0.96  0.00
  170                     1.00   0.00  0.00  0.00  1.00  0.00  0.00  0.00  1.00  0.00
  171                     1.00   0.00  0.00  0.00  0.98  0.02  0.00  0.00  0.99  0.00
  172                     1.00   0.00  0.00  0.00  0.00  1.00  0.00  0.00  0.99  0.00
  173                     1.00   0.00  0.00  0.00  0.00  1.00  0.00  0.00  0.98  0.00
  174                     1.00   0.00  0.00  0.00  0.00  1.00  0.00  0.00  0.98  0.00
  175                     1.00   0.00  0.00  0.00  0.00  1.00  0.00  0.00  0.98  0.00
  176                     1.00   0.00  0.00  0.00  0.00  1.00  0.00  0.00  0.97  0.00
  177                     1.00   0.00  0.00  0.00  0.00  1.00  0.00  0.00  0.97  0.00
  178                     1.00   0.00  0.00  0.00  0.00  1.00  0.00  0.00  0.97  0.00
  179                     1.00   0.00  0.00  0.00  0.00  1.00  0.00  0.00  0.96  0.00
  180                     1.00   0.00  0.00  0.00  1.00  0.00  0.00  0.00  1.00  0.00
  181                     1.00   0.00  0.00  0.00  0.98  0.02  0.00  0.00  0.99  0.00
  182                     1.00   0.00  0.00  0.00  0.00  1.00  0.00  0.00  0.99  0.00
  183                     1.00   0.00  0.00  0.00  0.00  1.00  0.00  0.00  0.98  0.00
  184                     1.00   0.00  0.00  0.00  0.00  1.00  0.00  0.00  0.98  0.00
  185                     1.00   0.00  0.00  0.00  0.00  1.00  0.00  0.00  0.98  0.00
  186                     1.00   0.00  0.00  0.00  0.00  1.00  0.00  0.00  0.97  0.00
  187                     1.00   0.00  0.00  0.00  0.00  1.00  0.00  0.00  0.97  0.00
  188                     1.00   0.00  0.00  0.00  0.00  1.00  0.00  0.00  0.97  0.00
  189                     1.00   0.00  0.00  0.00  0.00  1.00  0.00  0.00  0.96  0.00
  190                     1.00   0.00  0.00  0.00  1.00  0.00  0.00  0.00  1.00  0.00
  191                     1.00   0.00  0.00  0.00  0.98  0.02  0.00  0.00  0.99  0.00
  192                     1.00   0.00  0.00  0.00  0.00  1.00  0.00  0.00  0.99  0.00
  193                     1.00   0.00  0.00  0.00  0.00  1.00  0.00  0.00  0.98  0.00
  194                     1.00   0.00  0.00  0.00  0.00  1.00  0.00  0.00  0.98  0.00
  195                     1.00   0.00  0.00  0.00  0.00  1.00  0.00  0.00  0.98  0.00
  196                     1.00   0.00  0.00  0.00  0.00  1.00  0.00  0.00  0.97  0.00
  197                     1.00   0.00  0.00  0.00  0.00  1.00  0.00  0.00  0.97  0.00
  198                     1.00   0.00  0.00  0.00  0.00  1.00  0.00  0.00  0.97  0.00
  199                     1.00   0.00  0.00  0.00  0.00  1.00  0.00  0.00  0.96  0.00
  200                     1.00   0.00  0.00  0.00  1.00  0.00  0.00  0.00  1.00  0.00
  201                     1.00   0.00  0.00  0.00  0.98  0.02  0.00  0.00  0.99  0.00
  202                     1.00   0.00  0.00  0.00  0.00  1.00  0.00  0.00  0.99  0.00
  203                     1.00   0.00  0.00  0.00  0.00  1.00  0.00  0.00  0.98  0.00
  204                     1.00   0.00  0.00  0.00  0.00  1.00  0.00  0.00  0.98  0.00
  205                     1.00   0.00  0.00  0.00  0.00  1.00  0.00  0.00  0.98  0.00
  206                     1.00   0.00  0.00  0.00  0.00  1.00  0.00  0.00  0.97  0.00
  207                     1.00   0.00  0.00  0.00  0.00  1.00  0.00  0.00  0.97  0.00
  208                     1.00   0.00  0.00  0.00  0.00  1.00  0.00  0.00  0.96  0.00
  209                     1.00   0.00  0.00  0.00  0.00  1.00  0.00  0.00  0.96  0.00
  210                     1.00   0.00  0.00  0.00  1.00  0.00  0.00  0.00  1.00  0.00
  211                     1.00   0.00  0.00  0.00  0.98  0.02  0.00  0.00  0.99  0.00
  212                     1.00   0.00  0.00  0.00  0.00  1.00  0.00  0.00  0.99  0.00
  213                     1.00   0.00  0.00  0.00  0.00  1.00  0.00  0.00  0.98  0.00
  214                     1.00   0.00  0.00  0.00  0.00  1.00  0.00  0.00  0.98  0.00
  215                     1.00   0.00  0.00  0.00  0.00  1.00  0.00  0.00  0.98  0.00
  216                     1.00   0.00  0.00  0.00  0.00  1.00  0.00  0.00  0.97  0.00
  217                     1.00   0.00  0.00  0.00  0.00  1.00  0.00  0.00  0.97  0.00
  218                     1.00   0.00  0.00  0.00  0.00  1.00  0.00  0.00  0.96  0.00
  219                     1.00   0.00  0.00  0.00  0.94  0.06  0.00  0.00  0.96  0.00
  220                     1.00   0.00  0.00  0.00  1.00  0.00  0.00  0.00  0.05  0.00
  221                     1.00   0.00  0.00  0.00  0.99  0.01  0.00  0.00  0.99  0.00
  222                     1.00   0.00  0.00  0.00  0.00  1.00  0.00  0.00  0.99  0.00
  223                     1.00   0.00  0.00  0.00  0.00  1.00  0.00  0.00  0.99  0.00
  224                     1.00   0.00  0.00  0.00  0.00  1.00  0.00  0.00  0.98  0.00
  225                     1.00   0.00  0.00  0.00  0.00  1.00  0.00  0.00  0.98  0.00
  226                     1.00   0.00  0.00  0.00  0.00  1.00  0.00  0.00  0.98  0.00
  227                     1.00   0.00  0.00  0.00  0.00  1.00  0.00  0.00  0.97  0.00
  228                     1.00   0.00  0.00  0.00  0.00  1.00  0.00  0.00  0.97  0.00
  229                     1.00   0.00  0.00  0.00  0.95  0.05  0.00  0.00  0.97  0.00
  230                     1.00   0.00  0.00  0.00  1.00  0.00  0.00  0.00  0.04  0.00
  231                     1.00   0.00  0.00  0.00  0.99  0.01  0.00  0.00  0.99  0.00
  232                     1.00   0.00  0.00  0.00  0.00  1.00  0.00  0.00  0.99  0.00
  233                     1.00   0.00  0.00  0.00  0.00  1.00  0.00  0.00  0.99  0.00
  234                     1.00   0.00  0.00  0.00  0.00  1.00  0.00  0.00  0.98  0.00
  235                     1.00   0.00  0.00  0.00  0.00  1.00  0.00  0.00  0.98  0.00
  236                     1.00   0.00  0.00  0.00  0.00  1.00  0.00  0.00  0.98  0.00
  237                     1.00   0.00  0.00  0.00  0.00  1.00  0.00  0.00  0.97  0.00
  238                     1.00   0.00  0.00  0.00  0.00  1.00  0.00  0.00  0.97  0.00
  239                     1.00   0.00  0.00  0.00  0.95  0.05  0.00  0.00  0.97  0.00
  240                     1.00   0.00  0.00  0.00  1.00  0.00  0.00  0.00  0.04  0.00
  241                     1.00   0.00  0.00  0.00  1.00  0.00  0.00  0.00  0.00  0.00
  242                     1.00   0.00  0.00  0.00  0.00  1.00  0.00  0.00  1.00  0.00
  243                     1.00   0.00  0.00  0.00  0.00  1.00  0.00  0.00  0.99  0.00
  244                     1.00   0.00  0.00  0.00  0.00  1.00  0.00  0.00  0.99  0.00
  245                     1.00   0.00  0.00  0.00  0.00  1.00  0.00  0.00  0.99  0.00
  246                     1.00   0.00  0.00  0.00  0.00  1.00  0.00  0.00  0.98  0.00
  247                     1.00   0.00  0.00  0.00  0.00  1.00  0.00  0.00  0.98  0.00
  248                     1.00   0.00  0.00  0.00  0.00  1.00  0.00  0.00  0.98  0.00
  249                     1.00   0.00  0.00  0.00  0.00  1.00  0.00  0.00  0.97  0.00
  250                     1.00   0.00  0.00  0.00  0.00  1.00  0.00  0.00  0.97  0.00
  251                     1.00   0.00  0.00  0.00  1.00  0.00  0.00  0.00  1.00  0.00
  252                     1.00   0.00  0.00  0.00  0.98  0.02  0.00  0.00  0.99  0.00
  253                     1.00   0.00  0.00  0.00  0.00  1.00  0.00  0.00  0.99  0.00
  254                     1.00   0.00  0.00  0.00  0.00  1.00  0.00  0.00  0.99  0.00
  255                     1.00   0.00  0.00  0.00  0.00  1.00  0.00  0.00  0.98  0.00
  256                     1.00   0.00  0.00  0.00  0.00  1.00  0.00  0.00  0.98  0.00
  257                     1.00   0.00  0.00  0.00  0.00  1.00  0.00  0.00  0.98  0.00
  258                     1.00   0.00  0.00  0.00  0.00  1.00  0.00  0.00  0.97  0.00
  259                     1.00   0.00  0.00  0.00  0.00  1.00  0.00  0.00  0.97  0.00
  260                     1.00   0.00  0.00  0.00  0.00  1.00  0.00  0.00  0.96  0.00
  261                     1.00   0.00  0.00  0.00  1.00  0.00  0.00  0.00  1.00  0.00
  262                     1.00   0.00  0.00  0.00  0.98  0.02  0.00  0.00  0.99  0.00
  263                     1.00   0.00  0.00  0.00  0.00  1.00  0.00  0.00  0.99  0.00
  264                     1.00   0.00  0.00  0.00  0.00  1.00  0.00  0.00  0.99  0.00
  265                     1.00   0.00  0.00  0.00  0.00  1.00  0.00  0.00  0.98  0.00
  266                     1.00   0.00  0.00  0.00  0.00  1.00  0.00  0.00  0.98  0.00
  267                     1.00   0.00  0.00  0.00  0.00  1.00  0.00  0.00  0.97  0.00
  268                     1.00   0.00  0.00  0.00  0.00  1.00  0.00  0.00  0.97  0.00
  269                     1.00   0.00  0.00  0.00  0.00  1.00  0.00  0.00  0.97  0.00
  270                     1.00   0.00  0.00  0.00  0.00  1.00  0.00  0.00  0.96  0.00
  271                     1.00   0.00  0.00  0.00  1.00  0.00  0.00  0.00  1.00  0.00
  272                     1.00   0.00  0.00  0.00  0.98  0.02  0.00  0.00  0.99  0.00
  273                     1.00   0.00  0.00  0.00  0.00  1.00  0.00  0.00  0.99  0.00
  274                     1.00   0.00  0.00  0.00  0.00  1.00  0.00  0.00  0.98  0.00
  275                     1.00   0.00  0.00  0.00  0.00  1.00  0.00  0.00  0.98  0.00
  276                     1.00   0.00  0.00  0.00  0.00  1.00  0.00  0.00  0.98  0.00
  277                     1.00   0.00  0.00  0.00  0.00  1.00  0.00  0.00  0.97  0.00
  278                     1.00   0.00  0.00  0.00  0.00  1.00  0.00  0.00  0.97  0.00
  279                     1.00   0.00  0.00  0.00  0.00  1.00  0.00  0.00  0.97  0.00
  280                     1.00   0.00  0.00  0.00  0.00  1.00  0.00  0.00  0.96  0.00
  281                     1.00   0.00  0.00  0.00  1.00  0.00  0.00  0.00  1.00  0.00
  282                     1.00   0.00  0.00  0.00  0.98  0.02  0.00  0.00  0.99  0.00
  283                     1.00   0.00  0.00  0.00  0.00  1.00  0.00  0.00  0.99  0.00
  284                     1.00   0.00  0.00  0.00  0.00  1.00  0.00  0.00  0.98  0.00
  285                     1.00   0.00  0.00  0.00  0.00  1.00  0.00  0.00  0.98  0.00
  286                     1.00   0.00  0.00  0.00  0.00  1.00  0.00  0.00  0.98  0.00
  287                     1.00   0.00  0.00  0.00  0.00  1.00  0.00  0.00  0.97  0.00
  288                     1.00   0.00  0.00  0.00  0.00  1.00  0.00  0.00  0.97  0.00
  289                     1.00   0.00  0.00  0.00  0.00  1.00  0.00  0.00  0.97  0.00
  290                     1.00   0.00  0.00  0.00  0.00  1.00  0.00  0.00  0.96  0.00
  291                     1.00   0.00  0.00  0.00  1.00  0.00  0.00  0.00  1.00  0.00
  292                     1.00   0.00  0.00  0.00  0.98  0.02  0.00  0.00  0.99  0.00
  293                     1.00   0.00  0.00  0.00  0.00  1.00  0.00  0.00  0.99  0.00
  294                     1.00   0.00  0.00  0.00  0.00  1.00  0.00  0.00  0.98  0.00
  295                     1.00   0.00  0.00  0.00  0.00  1.00  0.00  0.00  0.98  0.00
  296                     1.00   0.00  0.00  0.00  0.00  1.00  0.00  0.00  0.98  0.00
  297                     1.00   0.00  0.00  0.00  0.00  1.00  0.00  0.00  0.97  0.00
  298                     1.00   0.00  0.00  0.00  0.00  1.00  0.00  0.00  0.97  0.00
  299                     1.00   0.00  0.00  0.00  0.00  1.00  0.00  0.00  0.97  0.00
  300                     1.00   0.00  0.00  0.00  0.00  1.00  0.00  0.00  0.96  0.00
  301                     1.00   0.00  0.00  0.00  1.00  0.00  0.00  0.00  1.00  0.00
  302                     1.00   0.00  0.00  0.00  0.98  0.02  0.00  0.00  0.99  0.00
  303                     1.00   0.00  0.00  0.00  0.00  1.00  0.00  0.00  0.99  0.00
  304                     1.00   0.00  0.00  0.00  0.00  1.00  0.00  0.00  0.98  0.00
  305                     1.00   0.00  0.00  0.00  0.00  1.00  0.00  0.00  0.98  0.00
  306                     1.00   0.00  0.00  0.00  0.00  1.00  0.00  0.00  0.98  0.00
  307                     1.00   0.00  0.00  0.00  0.00  1.00  0.00  0.00  0.97  0.00
  308                     1.00   0.00  0.00  0.00  0.00  1.00  0.00  0.00  0.97  0.00
  309                     1.00   0.00  0.00  0.00  0.00  1.00  0.00  0.00  0.97  0.00
  310                     1.00   0.00  0.00  0.00  0.00  1.00  0.00  0.00  0.96  0.00
  311                     1.00   0.00  0.00  0.00  1.00  0.00  0.00  0.00  1.00  0.00
  312                     1.00   0.00  0.00  0.00  0.98  0.02  0.00  0.00  0.99  0.00
  313                     1.00   0.00  0.00  0.00  0.00  1.00  0.00  0.00  0.99  0.00
  314                     1.00   0.00  0.00  0.00  0.00  1.00  0.00  0.00  0.98  0.00
  315                     1.00   0.00  0.00  0.00  0.00  1.00  0.00  0.00  0.98  0.00
  316                     1.00   0.00  0.00  0.00  0.00  1.00  0.00  0.00  0.98  0.00
  317                     1.00   0.00  0.00  0.00  0.00  1.00  0.00  0.00  0.97  0.00
  318                     1.00   0.00  0.00  0.00  0.00  1.00  0.00  0.00  0.97  0.00
  319                     1.00   0.00  0.00  0.00  0.00  1.00  0.00  0.00  0.97  0.00
  320                     1.00   0.00  0.00  0.00  0.00  1.00  0.00  0.00  0.96  0.00
  321                     1.00   0.00  0.00  0.00  1.00  0.00  0.00  0.00  1.00  0.00
  322                     1.00   0.00  0.00  0.00  0.98  0.02  0.00  0.00  0.99  0.00
  323                     1.00   0.00  0.00  0.00  0.00  1.00  0.00  0.00  0.99  0.00
  324                     1.00   0.00  0.00  0.00  0.00  1.00  0.00  0.00  0.98  0.00
  325                     1.00   0.00  0.00  0.00  0.00  1.00  0.00  0.00  0.98  0.00
  326                     1.00   0.00  0.00  0.00  0.00  1.00  0.00  0.00  0.98  0.00
  327                     1.00   0.00  0.00  0.00  0.00  1.00  0.00  0.00  0.97  0.00
  328                     1.00   0.00  0.00  0.00  0.00  1.00  0.00  0.00  0.97  0.00
  329                     1.00   0.00  0.00  0.00  0.00  1.00  0.00  0.00  0.96  0.00
  330                     1.00   0.00  0.00  0.00  0.00  1.00  0.00  0.00  0.96  0.00
  331                     1.00   0.00  0.00  0.00  1.00  0.00  0.00  0.00  1.00  0.00
  332                     1.00   0.00  0.00  0.00  0.98  0.02  0.00  0.00  0.99  0.00
  333                     1.00   0.00  0.00  0.00  0.00  1.00  0.00  0.00  0.99  0.00
  334                     1.00   0.00  0.00  0.00  0.00  1.00  0.00  0.00  0.98  0.00
  335                     1.00   0.00  0.00  0.00  0.00  1.00  0.00  0.00  0.98  0.00
  336                     1.00   0.00  0.00  0.00  0.00  1.00  0.00  0.00  0.98  0.00
  337                     1.00   0.00  0.00  0.00  0.00  1.00  0.00  0.00  0.97  0.00
  338                     1.00   0.00  0.00  0.00  0.00  1.00  0.00  0.00  0.97  0.00
  339                     1.00   0.00  0.00  0.00  0.00  1.00  0.00  0.00  0.96  0.00
  340                     1.00   0.00  0.00  0.00  0.94  0.06  0.00  0.00  0.96  0.00
  341                     1.00   0.00  0.00  0.00  1.00  0.00  0.00  0.00  0.05  0.00
  
  
  *************************
  Conduit Surcharge Summary
  *************************
  
  ----------------------------------------------------------------------------
                                                           Hours        Hours 
                         --------- Hours Full --------   Above Full   Capacity
  Conduit                Both Ends  Upstream  Dnstream   Normal Flow   Limited
  ----------------------------------------------------------------------------
  230                         0.01      0.01      5.74      0.01         0.01
  240                         0.01      0.01      5.74      0.01         0.01
  241                         0.01      5.74      0.01      5.91         5.63
  

  Analysis begun on:  Mon Nov 28 19:17:03 2022
  Analysis ended on:  Mon Nov 28 19:17:05 2022
  Total elapsed time: 00:00:02