
  EPA STORM WATER MANAGEMENT MODEL - VERSION 5.1 (Build 5.1.015)
  --------------------------------------------------------------

  WARNING 04: minimum elevation drop used for Conduit 241
  
  *********************************************************
  NOTE: The summary statistics displayed in this report are
  based on results found at every computational time step,  
  not just on results from each reporting time step.
  *********************************************************
  
  ****************
  Analysis Options
  ****************
  Flow Units ............... CMS
  Process Models:
    Rainfall/Runoff ........ NO
    RDII ................... NO
    Snowmelt ............... NO
    Groundwater ............ NO
    Flow Routing ........... YES
    Ponding Allowed ........ NO
    Water Quality .......... NO
  Flow Routing Method ...... DYNWAVE
  Surcharge Method ......... SLOT
  Starting Date ............ 10/31/2022 00:00:00
  Ending Date .............. 10/31/2022 06:00:00
  Antecedent Dry Days ...... 0.0
  Report Time Step ......... 00:00:10
  Routing Time Step ........ 1.00 sec
  Variable Time Step ....... NO
  Maximum Trials ........... 8
  Number of Threads ........ 6
  Head Tolerance ........... 0.001500 m
  
  
  **************************        Volume        Volume
  Flow Routing Continuity        hectare-m      10^6 ltr
  **************************     ---------     ---------
  Dry Weather Inflow .......         0.000         0.000
  Wet Weather Inflow .......         0.000         0.000
  Groundwater Inflow .......         0.000         0.000
  RDII Inflow ..............         0.000         0.000
  External Inflow ..........         4.541        45.406
  External Outflow .........         4.119        41.193
  Flooding Loss ............         0.000         0.000
  Evaporation Loss .........         0.000         0.000
  Exfiltration Loss ........         0.000         0.000
  Initial Stored Volume ....         0.000         0.000
  Final Stored Volume ......         0.409         4.094
  Continuity Error (%) .....         0.261
  
  
  *************************
  Highest Continuity Errors
  *************************
  Node H07 (2.83%)
  Node G07 (2.79%)
  Node I07 (2.77%)
  Node H08 (2.64%)
  Node F07 (2.63%)
  
  
  ********************************
  Highest Flow Instability Indexes
  ********************************
  All links are stable.
  
  
  *************************
  Routing Time Step Summary
  *************************
  Minimum Time Step           :     1.00 sec
  Average Time Step           :     1.00 sec
  Maximum Time Step           :     1.00 sec
  Percent in Steady State     :     0.00
  Average Iterations per Step :     2.00
  Percent Not Converging      :     0.00
  
  
  ******************
  Node Depth Summary
  ******************
  
  ---------------------------------------------------------------------------------
                                 Average  Maximum  Maximum  Time of Max    Reported
                                   Depth    Depth      HGL   Occurrence   Max Depth
  Node                 Type       Meters   Meters   Meters  days hr:min      Meters
  ---------------------------------------------------------------------------------
  A00                  JUNCTION     0.08     0.08    10.08     0  00:32        0.08
  A01                  JUNCTION     0.11     0.11     9.61     0  00:51        0.11
  A02                  JUNCTION     0.13     0.13     9.13     0  00:53        0.13
  A03                  JUNCTION     0.15     0.15     8.65     0  00:55        0.15
  A04                  JUNCTION     0.17     0.17     8.17     0  00:57        0.17
  A05                  JUNCTION     0.18     0.19     7.69     0  00:58        0.19
  A06                  JUNCTION     0.20     0.20     7.20     0  01:00        0.20
  A07                  JUNCTION     0.21     0.21     6.71     0  01:02        0.21
  A08                  JUNCTION     0.22     0.23     6.23     0  01:03        0.23
  A09                  JUNCTION     0.24     0.24     5.74     0  01:04        0.24
  A10                  JUNCTION     0.34     0.53     5.53     0  06:00        0.53
  B00                  JUNCTION     0.08     0.08     9.58     0  00:32        0.08
  B01                  JUNCTION     0.11     0.11     9.11     0  00:51        0.11
  B02                  JUNCTION     0.13     0.13     8.63     0  00:53        0.13
  B03                  JUNCTION     0.15     0.15     8.15     0  00:55        0.15
  B04                  JUNCTION     0.17     0.17     7.67     0  00:57        0.17
  B05                  JUNCTION     0.18     0.19     7.19     0  00:58        0.19
  B06                  JUNCTION     0.20     0.20     6.70     0  01:00        0.20
  B07                  JUNCTION     0.21     0.21     6.21     0  01:02        0.21
  B08                  JUNCTION     0.22     0.23     5.73     0  01:03        0.23
  B09                  JUNCTION     0.34     0.53     5.53     0  06:00        0.53
  B10                  JUNCTION     0.70     1.02     5.52     0  06:00        1.02
  C00                  JUNCTION     0.08     0.08     9.08     0  00:32        0.08
  C01                  JUNCTION     0.11     0.11     8.61     0  00:51        0.11
  C02                  JUNCTION     0.13     0.13     8.13     0  00:53        0.13
  C03                  JUNCTION     0.15     0.15     7.65     0  00:55        0.15
  C04                  JUNCTION     0.17     0.17     7.17     0  00:57        0.17
  C05                  JUNCTION     0.18     0.19     6.69     0  00:59        0.19
  C06                  JUNCTION     0.20     0.20     6.20     0  01:00        0.20
  C07                  JUNCTION     0.21     0.21     5.71     0  01:02        0.21
  C08                  JUNCTION     0.32     0.50     5.50     0  06:00        0.50
  C09                  JUNCTION     0.65     0.99     5.49     0  06:00        0.99
  C10                  JUNCTION     1.08     1.48     5.48     0  06:00        1.48
  D00                  JUNCTION     0.08     0.08     8.58     0  00:32        0.08
  D01                  JUNCTION     0.11     0.11     8.11     0  00:51        0.11
  D02                  JUNCTION     0.13     0.13     7.63     0  00:53        0.13
  D03                  JUNCTION     0.15     0.15     7.15     0  00:55        0.15
  D04                  JUNCTION     0.17     0.17     6.67     0  00:57        0.17
  D05                  JUNCTION     0.18     0.19     6.19     0  00:58        0.19
  D06                  JUNCTION     0.20     0.20     5.70     0  01:00        0.20
  D07                  JUNCTION     0.27     0.42     5.42     0  06:00        0.42
  D08                  JUNCTION     0.59     0.91     5.41     0  06:00        0.91
  D09                  JUNCTION     0.99     1.41     5.41     0  06:00        1.41
  D10                  JUNCTION     1.45     1.90     5.40     0  06:00        1.90
  E00                  JUNCTION     0.08     0.08     8.08     0  00:32        0.08
  E01                  JUNCTION     0.11     0.11     7.61     0  00:51        0.11
  E02                  JUNCTION     0.13     0.13     7.13     0  00:53        0.13
  E03                  JUNCTION     0.15     0.15     6.65     0  00:55        0.15
  E04                  JUNCTION     0.17     0.17     6.17     0  00:57        0.17
  E05                  JUNCTION     0.18     0.19     5.69     0  00:58        0.19
  E06                  JUNCTION     0.21     0.27     5.27     0  06:00        0.27
  E07                  JUNCTION     0.49     0.77     5.27     0  06:00        0.77
  E08                  JUNCTION     0.88     1.27     5.27     0  06:00        1.27
  E09                  JUNCTION     1.31     1.76     5.26     0  06:00        1.76
  E10                  JUNCTION     1.78     2.25     5.25     0  06:00        2.25
  F00                  JUNCTION     0.08     0.08     7.58     0  00:32        0.08
  F01                  JUNCTION     0.11     0.11     7.11     0  00:51        0.11
  F02                  JUNCTION     0.13     0.13     6.63     0  00:53        0.13
  F03                  JUNCTION     0.15     0.15     6.15     0  00:55        0.15
  F04                  JUNCTION     0.17     0.17     5.67     0  00:57        0.17
  F05                  JUNCTION     0.18     0.19     5.19     0  00:58        0.19
  F06                  JUNCTION     0.34     0.54     5.04     0  06:00        0.54
  F07                  JUNCTION     0.70     1.04     5.04     0  06:00        1.04
  F08                  JUNCTION     1.12     1.54     5.04     0  06:00        1.54
  F09                  JUNCTION     1.57     2.03     5.03     0  06:00        2.03
  F10                  JUNCTION     2.05     2.52     5.02     0  06:00        2.52
  G00                  JUNCTION     0.08     0.08     7.08     0  00:32        0.08
  G01                  JUNCTION     0.11     0.11     6.61     0  00:51        0.11
  G02                  JUNCTION     0.13     0.13     6.13     0  00:53        0.13
  G03                  JUNCTION     0.15     0.15     5.65     0  00:55        0.15
  G04                  JUNCTION     0.17     0.17     5.17     0  00:57        0.17
  G05                  JUNCTION     0.19     0.22     4.72     0  06:00        0.22
  G06                  JUNCTION     0.46     0.72     4.72     0  06:00        0.72
  G07                  JUNCTION     0.86     1.21     4.71     0  06:00        1.21
  G08                  JUNCTION     1.30     1.71     4.71     0  06:00        1.71
  G09                  JUNCTION     1.76     2.20     4.70     0  06:00        2.20
  G10                  JUNCTION     2.23     2.69     4.69     0  06:00        2.69
  H00                  JUNCTION     0.08     0.08     6.58     0  00:32        0.08
  H01                  JUNCTION     0.11     0.11     6.11     0  00:51        0.11
  H02                  JUNCTION     0.13     0.13     5.63     0  00:53        0.13
  H03                  JUNCTION     0.15     0.15     5.15     0  00:55        0.15
  H04                  JUNCTION     0.17     0.17     4.67     0  00:57        0.17
  H05                  JUNCTION     0.20     0.27     4.27     0  06:00        0.27
  H06                  JUNCTION     0.52     0.77     4.27     0  06:00        0.77
  H07                  JUNCTION     0.93     1.27     4.27     0  06:00        1.27
  H08                  JUNCTION     1.38     1.76     4.26     0  06:00        1.76
  H09                  JUNCTION     1.84     2.26     4.26     0  06:00        2.26
  H10                  JUNCTION     2.32     2.75     4.25     0  06:00        2.75
  I00                  JUNCTION     0.08     0.08     6.08     0  00:32        0.08
  I01                  JUNCTION     0.11     0.11     5.61     0  00:51        0.11
  I02                  JUNCTION     0.13     0.13     5.13     0  00:53        0.13
  I03                  JUNCTION     0.15     0.15     4.65     0  00:55        0.15
  I04                  JUNCTION     0.17     0.17     4.17     0  00:57        0.17
  I05                  JUNCTION     0.18     0.19     3.69     0  06:00        0.19
  I06                  JUNCTION     0.47     0.69     3.69     0  06:00        0.69
  I07                  JUNCTION     0.89     1.18     3.68     0  06:00        1.18
  I08                  JUNCTION     1.34     1.68     3.68     0  06:00        1.68
  I09                  JUNCTION     1.81     2.17     3.67     0  06:00        2.17
  I10                  JUNCTION     2.29     2.67     3.67     0  06:00        2.67
  J00                  JUNCTION     0.08     0.08     5.58     0  00:32        0.08
  J01                  JUNCTION     0.11     0.11     5.11     0  00:51        0.11
  J02                  JUNCTION     0.13     0.13     4.63     0  00:53        0.13
  J03                  JUNCTION     0.15     0.15     4.15     0  00:55        0.15
  J04                  JUNCTION     0.17     0.17     3.67     0  00:57        0.17
  J05                  JUNCTION     0.18     0.19     3.19     0  00:58        0.19
  J06                  JUNCTION     0.32     0.45     2.95     0  06:00        0.45
  J07                  JUNCTION     0.72     0.94     2.94     0  06:00        0.94
  J08                  JUNCTION     1.18     1.44     2.94     0  06:00        1.44
  J09                  JUNCTION     1.65     1.93     2.93     0  06:00        1.93
  J10                  JUNCTION     2.13     2.42     2.92     0  06:00        2.42
  K00                  JUNCTION     0.08     0.08     5.08     0  00:32        0.08
  K01                  JUNCTION     0.11     0.11     4.61     0  00:50        0.11
  K02                  JUNCTION     0.13     0.13     4.13     0  00:53        0.13
  K03                  JUNCTION     0.15     0.15     3.65     0  00:55        0.15
  K04                  JUNCTION     0.17     0.17     3.17     0  00:57        0.17
  K05                  JUNCTION     0.18     0.19     2.69     0  00:58        0.19
  K06                  JUNCTION     0.20     0.20     2.20     0  01:00        0.20
  K07                  JUNCTION     0.41     0.52     2.02     0  06:00        0.52
  K08                  JUNCTION     0.86     1.02     2.02     0  06:00        1.02
  K09                  JUNCTION     1.33     1.51     2.01     0  06:00        1.51
  K10                  JUNCTION     1.81     2.00     2.00     0  06:00        2.00
  Outfall              OUTFALL      0.78     0.83     0.83     0  06:00        0.83
  
  
  *******************
  Node Inflow Summary
  *******************
  
  -------------------------------------------------------------------------------------------------
                                  Maximum  Maximum                  Lateral       Total        Flow
                                  Lateral    Total  Time of Max      Inflow      Inflow     Balance
                                   Inflow   Inflow   Occurrence      Volume      Volume       Error
  Node                 Type           CMS      CMS  days hr:min    10^6 ltr    10^6 ltr     Percent
  -------------------------------------------------------------------------------------------------
  A00                  JUNCTION     0.017    0.017     0  00:00       0.375       0.375       0.363
  A01                  JUNCTION     0.017    0.035     0  00:32       0.375       0.749       0.620
  A02                  JUNCTION     0.017    0.052     0  00:51       0.375        1.12       0.549
  A03                  JUNCTION     0.017    0.069     0  00:53       0.375        1.49       0.506
  A04                  JUNCTION     0.017    0.087     0  00:55       0.375        1.86       0.476
  A05                  JUNCTION     0.017    0.104     0  00:57       0.375        2.22       0.452
  A06                  JUNCTION     0.017    0.122     0  00:58       0.375        2.59       0.434
  A07                  JUNCTION     0.017    0.139     0  01:00       0.375        2.95       0.418
  A08                  JUNCTION     0.017    0.156     0  01:02       0.375        3.32       0.404
  A09                  JUNCTION     0.017    0.174     0  01:03       0.375        3.68       0.393
  A10                  JUNCTION     0.017    0.191     0  01:04       0.375        4.04       1.040
  B00                  JUNCTION     0.017    0.017     0  00:00       0.375       0.375       0.363
  B01                  JUNCTION     0.017    0.035     0  00:32       0.375       0.749       0.620
  B02                  JUNCTION     0.017    0.052     0  00:51       0.375        1.12       0.549
  B03                  JUNCTION     0.017    0.069     0  00:53       0.375        1.49       0.506
  B04                  JUNCTION     0.017    0.087     0  00:55       0.375        1.86       0.476
  B05                  JUNCTION     0.017    0.104     0  00:57       0.375        2.22       0.452
  B06                  JUNCTION     0.017    0.122     0  00:58       0.375        2.59       0.434
  B07                  JUNCTION     0.017    0.139     0  01:00       0.375        2.95       0.418
  B08                  JUNCTION     0.017    0.156     0  01:02       0.375        3.32       0.405
  B09                  JUNCTION     0.017    0.174     0  01:03       0.375        3.68       1.140
  B10                  JUNCTION     0.017    0.382     0  01:06       0.375        8.01       1.496
  C00                  JUNCTION     0.017    0.017     0  00:00       0.375       0.375       0.363
  C01                  JUNCTION     0.017    0.035     0  00:32       0.375       0.749       0.620
  C02                  JUNCTION     0.017    0.052     0  00:51       0.375        1.12       0.549
  C03                  JUNCTION     0.017    0.069     0  00:53       0.375        1.49       0.506
  C04                  JUNCTION     0.017    0.087     0  00:55       0.375        1.86       0.476
  C05                  JUNCTION     0.017    0.104     0  00:57       0.375        2.22       0.452
  C06                  JUNCTION     0.017    0.122     0  00:59       0.375        2.59       0.434
  C07                  JUNCTION     0.017    0.139     0  01:00       0.375        2.95       0.418
  C08                  JUNCTION     0.017    0.156     0  01:02       0.375        3.32       1.176
  C09                  JUNCTION     0.017    0.174     0  01:03       0.375        3.65       2.109
  C10                  JUNCTION     0.017    0.573     0  01:07       0.375        11.8       1.118
  D00                  JUNCTION     0.017    0.017     0  00:00       0.375       0.375       0.363
  D01                  JUNCTION     0.017    0.035     0  00:32       0.375       0.749       0.620
  D02                  JUNCTION     0.017    0.052     0  00:51       0.375        1.12       0.549
  D03                  JUNCTION     0.017    0.069     0  00:53       0.375        1.49       0.506
  D04                  JUNCTION     0.017    0.087     0  00:55       0.375        1.86       0.476
  D05                  JUNCTION     0.017    0.104     0  00:57       0.375        2.22       0.452
  D06                  JUNCTION     0.017    0.122     0  00:58       0.375        2.59       0.434
  D07                  JUNCTION     0.017    0.139     0  01:00       0.375        2.95       1.063
  D08                  JUNCTION     0.017    0.156     0  01:01       0.375         3.3       2.224
  D09                  JUNCTION     0.017    0.174     0  01:03       0.375         3.6       2.364
  D10                  JUNCTION     0.017    0.764     0  00:53       0.375        15.6       0.859
  E00                  JUNCTION     0.017    0.017     0  00:00       0.375       0.375       0.363
  E01                  JUNCTION     0.017    0.035     0  00:32       0.375       0.749       0.620
  E02                  JUNCTION     0.017    0.052     0  00:51       0.375        1.12       0.549
  E03                  JUNCTION     0.017    0.069     0  00:53       0.375        1.49       0.506
  E04                  JUNCTION     0.017    0.087     0  00:55       0.375        1.86       0.476
  E05                  JUNCTION     0.017    0.104     0  00:57       0.375        2.22       0.452
  E06                  JUNCTION     0.017    0.122     0  00:58       0.375        2.59       0.686
  E07                  JUNCTION     0.017    0.139     0  01:00       0.375        2.95       2.166
  E08                  JUNCTION     0.017    0.156     0  01:01       0.375        3.26       2.574
  E09                  JUNCTION     0.017    0.174     0  00:58       0.375        3.55       2.435
  E10                  JUNCTION     0.017    0.956     0  00:37       0.375        19.3       0.697
  F00                  JUNCTION     0.017    0.017     0  00:00       0.375       0.375       0.363
  F01                  JUNCTION     0.017    0.035     0  00:32       0.375       0.749       0.620
  F02                  JUNCTION     0.017    0.052     0  00:51       0.375        1.12       0.549
  F03                  JUNCTION     0.017    0.069     0  00:53       0.375        1.49       0.506
  F04                  JUNCTION     0.017    0.087     0  00:55       0.375        1.86       0.476
  F05                  JUNCTION     0.017    0.104     0  00:57       0.375        2.22       0.452
  F06                  JUNCTION     0.017    0.122     0  00:58       0.375        2.59       1.696
  F07                  JUNCTION     0.017    0.139     0  01:00       0.375        2.92       2.704
  F08                  JUNCTION     0.017    0.156     0  01:02       0.375        3.22       2.667
  F09                  JUNCTION     0.017    0.174     0  00:42       0.375        3.51       2.476
  F10                  JUNCTION     0.017    1.145     0  00:27       0.375          23       0.587
  G00                  JUNCTION     0.017    0.017     0  00:00       0.375       0.375       0.363
  G01                  JUNCTION     0.017    0.035     0  00:32       0.375       0.749       0.620
  G02                  JUNCTION     0.017    0.052     0  00:51       0.375        1.12       0.549
  G03                  JUNCTION     0.017    0.069     0  00:53       0.375        1.49       0.506
  G04                  JUNCTION     0.017    0.087     0  00:55       0.375        1.86       0.476
  G05                  JUNCTION     0.017    0.104     0  00:57       0.375        2.22       0.579
  G06                  JUNCTION     0.017    0.122     0  00:58       0.375        2.59       2.308
  G07                  JUNCTION     0.017    0.139     0  01:00       0.375         2.9       2.875
  G08                  JUNCTION     0.017    0.156     0  00:53       0.375         3.2       2.703
  G09                  JUNCTION     0.017    0.207     0  00:26       0.375        3.49       2.499
  G10                  JUNCTION     0.017    1.330     0  06:00       0.375        26.6       0.507
  H00                  JUNCTION     0.017    0.017     0  00:00       0.375       0.375       0.363
  H01                  JUNCTION     0.017    0.035     0  00:32       0.375       0.749       0.620
  H02                  JUNCTION     0.017    0.052     0  00:51       0.375        1.12       0.549
  H03                  JUNCTION     0.017    0.069     0  00:53       0.375        1.49       0.506
  H04                  JUNCTION     0.017    0.087     0  00:55       0.375        1.86       0.476
  H05                  JUNCTION     0.017    0.104     0  00:57       0.375        2.22       0.796
  H06                  JUNCTION     0.017    0.122     0  00:58       0.375        2.58       2.478
  H07                  JUNCTION     0.017    0.139     0  01:00       0.375        2.89       2.907
  H08                  JUNCTION     0.017    0.156     0  00:44       0.375        3.19       2.714
  H09                  JUNCTION     0.017    0.253     0  00:23       0.375        3.48       2.506
  H10                  JUNCTION     0.017    1.520     0  06:00       0.375        30.3       0.445
  I00                  JUNCTION     0.017    0.017     0  00:00       0.375       0.375       0.363
  I01                  JUNCTION     0.017    0.035     0  00:32       0.375       0.749       0.620
  I02                  JUNCTION     0.017    0.052     0  00:51       0.375        1.12       0.549
  I03                  JUNCTION     0.017    0.069     0  00:53       0.375        1.49       0.506
  I04                  JUNCTION     0.017    0.087     0  00:55       0.375        1.86       0.476
  I05                  JUNCTION     0.017    0.104     0  00:57       0.375        2.22       0.469
  I06                  JUNCTION     0.017    0.122     0  00:58       0.375        2.59       2.209
  I07                  JUNCTION     0.017    0.139     0  01:00       0.375        2.91       2.851
  I08                  JUNCTION     0.017    0.156     0  00:39       0.375         3.2       2.696
  I09                  JUNCTION     0.017    0.264     0  00:21       0.375         3.5       2.491
  I10                  JUNCTION     0.017    1.710     0  06:00       0.375        33.9       0.395
  J00                  JUNCTION     0.017    0.017     0  00:00       0.375       0.375       0.363
  J01                  JUNCTION     0.017    0.035     0  00:32       0.375       0.749       0.620
  J02                  JUNCTION     0.017    0.052     0  00:51       0.375        1.12       0.549
  J03                  JUNCTION     0.017    0.069     0  00:53       0.375        1.49       0.506
  J04                  JUNCTION     0.017    0.087     0  00:55       0.375        1.86       0.476
  J05                  JUNCTION     0.017    0.104     0  00:57       0.375        2.22       0.452
  J06                  JUNCTION     0.017    0.122     0  00:58       0.375        2.59       1.321
  J07                  JUNCTION     0.017    0.139     0  01:00       0.375        2.93       2.561
  J08                  JUNCTION     0.017    0.156     0  00:39       0.375        3.23       2.640
  J09                  JUNCTION     0.017    0.291     0  00:18       0.375        3.53       2.458
  J10                  JUNCTION     0.017    1.901     0  06:00       0.375        37.6       0.354
  K00                  JUNCTION     0.017    0.017     0  00:00       0.375       0.375       0.363
  K01                  JUNCTION     0.017    0.035     0  00:32       0.375       0.749       0.620
  K02                  JUNCTION     0.017    0.052     0  00:50       0.375        1.12       0.549
  K03                  JUNCTION     0.017    0.069     0  00:54       0.375        1.49       0.506
  K04                  JUNCTION     0.017    0.087     0  00:55       0.375        1.86       0.476
  K05                  JUNCTION     0.017    0.104     0  00:57       0.375        2.22       0.452
  K06                  JUNCTION     0.017    0.122     0  00:58       0.375        2.59       0.434
  K07                  JUNCTION     0.017    0.139     0  01:00       0.375        2.95       1.398
  K08                  JUNCTION     0.017    0.156     0  00:57       0.375        3.29       2.369
  K09                  JUNCTION     0.017    0.203     0  00:14       0.375        3.59       2.397
  K10                  JUNCTION     0.017    2.092     0  06:00       0.375        41.3       0.341
  Outfall              OUTFALL      0.000    2.092     0  06:00           0        41.2       0.000
  
  
  **********************
  Node Surcharge Summary
  **********************
  
  Surcharging occurs when water rises above the top of the highest conduit.
  ---------------------------------------------------------------------
                                               Max. Height   Min. Depth
                                   Hours       Above Crown    Below Rim
  Node                 Type      Surcharged         Meters       Meters
  ---------------------------------------------------------------------
  B10                  JUNCTION        0.57          0.020        8.980
  C10                  JUNCTION        3.98          0.485        8.515
  D09                  JUNCTION        3.77          0.409        8.591
  D10                  JUNCTION        4.82          0.901        8.099
  E08                  JUNCTION        3.27          0.267        8.733
  E09                  JUNCTION        4.66          0.761        8.239
  E10                  JUNCTION        5.21          1.253        7.747
  F07                  JUNCTION        1.16          0.042        8.958
  F08                  JUNCTION        4.29          0.538        8.462
  F09                  JUNCTION        5.07          1.031        7.969
  F10                  JUNCTION        5.43          1.524        7.476
  G07                  JUNCTION        3.15          0.213        8.787
  G08                  JUNCTION        4.71          0.709        8.291
  G09                  JUNCTION        5.28          1.202        7.798
  G10                  JUNCTION        5.55          1.695        7.305
  H07                  JUNCTION        3.58          0.267        8.733
  H08                  JUNCTION        4.93          0.762        8.238
  H09                  JUNCTION        5.40          1.256        7.744
  H10                  JUNCTION        5.61          1.749        7.251
  I07                  JUNCTION        3.34          0.184        8.816
  I08                  JUNCTION        5.00          0.679        8.321
  I09                  JUNCTION        5.46          1.173        7.827
  I10                  JUNCTION        5.65          1.666        7.334
  J08                  JUNCTION        4.84          0.438        8.562
  J09                  JUNCTION        5.49          0.932        8.068
  J10                  JUNCTION        5.68          1.425        7.575
  K08                  JUNCTION        1.36          0.015        8.985
  K09                  JUNCTION        5.47          0.509        8.491
  K10                  JUNCTION        5.74          1.001        7.999
  
  
  *********************
  Node Flooding Summary
  *********************
  
  No nodes were flooded.
  
  
  ***********************
  Outfall Loading Summary
  ***********************
  
  -----------------------------------------------------------
                         Flow       Avg       Max       Total
                         Freq      Flow      Flow      Volume
  Outfall Node           Pcnt       CMS       CMS    10^6 ltr
  -----------------------------------------------------------
  Outfall               99.90     1.909     2.092      41.193
  -----------------------------------------------------------
  System                99.90     1.909     2.092      41.193
  
  
  ********************
  Link Flow Summary
  ********************
  
  -----------------------------------------------------------------------------
                                 Maximum  Time of Max   Maximum    Max/    Max/
                                  |Flow|   Occurrence   |Veloc|    Full    Full
  Link                 Type          CMS  days hr:min     m/sec    Flow   Depth
  -----------------------------------------------------------------------------
  121                  CONDUIT     0.017     0  00:32      0.58    0.01    0.09
  122                  CONDUIT     0.035     0  00:51      0.66    0.03    0.12
  123                  CONDUIT     0.052     0  00:53      0.76    0.04    0.14
  124                  CONDUIT     0.069     0  00:55      0.85    0.05    0.16
  125                  CONDUIT     0.087     0  00:57      0.92    0.06    0.18
  126                  CONDUIT     0.104     0  00:58      0.98    0.08    0.19
  127                  CONDUIT     0.122     0  01:00      1.03    0.09    0.21
  128                  CONDUIT     0.139     0  01:02      1.08    0.10    0.22
  129                  CONDUIT     0.156     0  01:03      1.12    0.11    0.23
  130                  CONDUIT     0.174     0  01:04      1.16    0.13    0.38
  131                  CONDUIT     0.017     0  00:32      0.58    0.01    0.09
  132                  CONDUIT     0.035     0  00:51      0.66    0.03    0.12
  133                  CONDUIT     0.052     0  00:53      0.76    0.04    0.14
  134                  CONDUIT     0.069     0  00:55      0.85    0.05    0.16
  135                  CONDUIT     0.087     0  00:57      0.92    0.06    0.18
  136                  CONDUIT     0.104     0  00:58      0.98    0.08    0.19
  137                  CONDUIT     0.122     0  01:00      1.03    0.09    0.21
  138                  CONDUIT     0.139     0  01:02      1.08    0.10    0.22
  139                  CONDUIT     0.156     0  01:03      1.12    0.11    0.38
  140                  CONDUIT     0.174     0  01:05      0.89    0.13    0.77
  141                  CONDUIT     0.017     0  00:32      0.58    0.01    0.09
  142                  CONDUIT     0.035     0  00:51      0.66    0.03    0.12
  143                  CONDUIT     0.052     0  00:53      0.76    0.04    0.14
  144                  CONDUIT     0.069     0  00:55      0.85    0.05    0.16
  145                  CONDUIT     0.087     0  00:57      0.92    0.06    0.18
  146                  CONDUIT     0.104     0  00:59      0.98    0.08    0.19
  147                  CONDUIT     0.122     0  01:00      1.03    0.09    0.21
  148                  CONDUIT     0.139     0  01:02      1.08    0.10    0.36
  149                  CONDUIT     0.156     0  01:03      1.12    0.11    0.74
  150                  CONDUIT     0.174     0  01:05      0.76    0.13    1.00
  151                  CONDUIT     0.017     0  00:32      0.58    0.01    0.09
  152                  CONDUIT     0.035     0  00:51      0.66    0.03    0.12
  153                  CONDUIT     0.052     0  00:53      0.76    0.04    0.14
  154                  CONDUIT     0.069     0  00:55      0.85    0.05    0.16
  155                  CONDUIT     0.087     0  00:57      0.92    0.06    0.18
  156                  CONDUIT     0.104     0  00:58      0.98    0.08    0.19
  157                  CONDUIT     0.122     0  01:00      1.03    0.09    0.31
  158                  CONDUIT     0.139     0  01:01      1.08    0.10    0.67
  159                  CONDUIT     0.156     0  01:03      1.12    0.11    1.00
  160                  CONDUIT     0.174     0  00:53      0.69    0.13    1.00
  161                  CONDUIT     0.017     0  00:32      0.58    0.01    0.09
  162                  CONDUIT     0.035     0  00:51      0.66    0.03    0.12
  163                  CONDUIT     0.052     0  00:53      0.76    0.04    0.14
  164                  CONDUIT     0.069     0  00:55      0.85    0.05    0.16
  165                  CONDUIT     0.087     0  00:57      0.92    0.06    0.18
  166                  CONDUIT     0.104     0  00:58      0.98    0.08    0.23
  167                  CONDUIT     0.122     0  01:00      1.03    0.09    0.52
  168                  CONDUIT     0.139     0  01:01      1.08    0.10    1.00
  169                  CONDUIT     0.156     0  00:58      1.12    0.11    1.00
  170                  CONDUIT     0.174     0  00:37      0.68    0.13    1.00
  171                  CONDUIT     0.017     0  00:32      0.58    0.01    0.09
  172                  CONDUIT     0.035     0  00:51      0.66    0.03    0.12
  173                  CONDUIT     0.052     0  00:53      0.76    0.04    0.14
  174                  CONDUIT     0.069     0  00:55      0.85    0.05    0.16
  175                  CONDUIT     0.087     0  00:57      0.92    0.06    0.18
  176                  CONDUIT     0.104     0  00:58      0.98    0.08    0.37
  177                  CONDUIT     0.122     0  01:00      1.03    0.09    0.79
  178                  CONDUIT     0.139     0  01:02      1.08    0.10    1.00
  179                  CONDUIT     0.156     0  00:42      1.12    0.11    1.00
  180                  CONDUIT     0.174     0  00:27      0.68    0.13    1.00
  181                  CONDUIT     0.017     0  00:32      0.58    0.01    0.09
  182                  CONDUIT     0.035     0  00:51      0.66    0.03    0.12
  183                  CONDUIT     0.052     0  00:53      0.76    0.04    0.14
  184                  CONDUIT     0.069     0  00:55      0.85    0.05    0.16
  185                  CONDUIT     0.087     0  00:57      0.92    0.06    0.19
  186                  CONDUIT     0.104     0  00:58      0.98    0.08    0.47
  187                  CONDUIT     0.122     0  01:00      1.03    0.09    0.96
  188                  CONDUIT     0.139     0  00:53      1.08    0.10    1.00
  189                  CONDUIT     0.156     0  00:33      1.12    0.11    1.00
  190                  CONDUIT     0.173     0  06:00      0.68    0.13    1.00
  191                  CONDUIT     0.017     0  00:32      0.58    0.01    0.09
  192                  CONDUIT     0.035     0  00:51      0.66    0.03    0.12
  193                  CONDUIT     0.052     0  00:53      0.76    0.04    0.14
  194                  CONDUIT     0.069     0  00:55      0.85    0.05    0.16
  195                  CONDUIT     0.087     0  00:57      0.92    0.06    0.22
  196                  CONDUIT     0.104     0  00:58      0.98    0.08    0.52
  197                  CONDUIT     0.122     0  01:00      1.03    0.09    1.00
  198                  CONDUIT     0.139     0  00:44      1.08    0.10    1.00
  199                  CONDUIT     0.156     0  00:28      1.12    0.11    1.00
  200                  CONDUIT     0.187     0  00:25      0.68    0.14    1.00
  201                  CONDUIT     0.017     0  00:32      0.58    0.01    0.09
  202                  CONDUIT     0.035     0  00:51      0.66    0.03    0.12
  203                  CONDUIT     0.052     0  00:53      0.76    0.04    0.14
  204                  CONDUIT     0.069     0  00:55      0.85    0.05    0.16
  205                  CONDUIT     0.087     0  00:57      0.92    0.06    0.18
  206                  CONDUIT     0.104     0  00:58      0.98    0.08    0.44
  207                  CONDUIT     0.122     0  01:00      1.03    0.09    0.94
  208                  CONDUIT     0.139     0  00:39      1.08    0.10    1.00
  209                  CONDUIT     0.156     0  00:24      1.12    0.11    1.00
  210                  CONDUIT     0.173     0  05:44      0.68    0.13    1.00
  211                  CONDUIT     0.017     0  00:32      0.58    0.01    0.09
  212                  CONDUIT     0.035     0  00:51      0.66    0.03    0.12
  213                  CONDUIT     0.052     0  00:53      0.76    0.04    0.14
  214                  CONDUIT     0.069     0  00:55      0.85    0.05    0.16
  215                  CONDUIT     0.087     0  00:57      0.92    0.06    0.18
  216                  CONDUIT     0.104     0  00:58      0.98    0.08    0.32
  217                  CONDUIT     0.122     0  01:00      1.03    0.09    0.69
  218                  CONDUIT     0.139     0  00:39      1.08    0.10    1.00
  219                  CONDUIT     0.156     0  00:22      1.12    0.11    1.00
  220                  CONDUIT     0.178     0  00:20      0.68    0.13    1.00
  221                  CONDUIT     0.017     0  00:32      0.58    0.01    0.09
  222                  CONDUIT     0.035     0  00:50      0.66    0.03    0.12
  223                  CONDUIT     0.052     0  00:54      0.76    0.04    0.14
  224                  CONDUIT     0.069     0  00:55      0.85    0.05    0.16
  225                  CONDUIT     0.087     0  00:57      0.92    0.06    0.18
  226                  CONDUIT     0.104     0  00:58      0.98    0.08    0.19
  227                  CONDUIT     0.122     0  01:00      1.03    0.09    0.36
  228                  CONDUIT     0.139     0  00:57      1.08    0.10    0.77
  229                  CONDUIT     0.156     0  05:51      1.09    0.11    1.00
  230                  CONDUIT     0.173     0  05:51      0.56    0.13    1.00
  231                  CONDUIT     0.191     0  01:06      0.94    0.14    0.77
  232                  CONDUIT     0.382     0  01:07      1.28    0.28    1.00
  233                  CONDUIT     0.573     0  01:02      1.49    0.42    1.00
  234                  CONDUIT     0.764     0  00:43      1.64    0.55    1.00
  235                  CONDUIT     0.955     0  00:31      1.75    0.69    1.00
  236                  CONDUIT     1.140     0  06:00      1.84    0.83    1.00
  237                  CONDUIT     1.330     0  06:00      1.91    0.97    1.00
  238                  CONDUIT     1.520     0  06:00      1.94    1.10    1.00
  239                  CONDUIT     1.710     0  06:00      2.18    1.24    1.00
  240                  CONDUIT     1.901     0  06:00      2.42    1.38    1.00
  241                  CONDUIT     2.092     0  06:00      2.66   61.49    1.00
  
  
  ***************************
  Flow Classification Summary
  ***************************
  
  -------------------------------------------------------------------------------------
                      Adjusted    ---------- Fraction of Time in Flow Class ---------- 
                       /Actual         Up    Down  Sub   Sup   Up    Down  Norm  Inlet 
  Conduit               Length    Dry  Dry   Dry   Crit  Crit  Crit  Crit  Ltd   Ctrl  
  -------------------------------------------------------------------------------------
  121                     1.00   0.00  0.00  0.00  1.00  0.00  0.00  0.00  0.99  0.00
  122                     1.00   0.00  0.00  0.00  1.00  0.00  0.00  0.00  0.99  0.00
  123                     1.00   0.00  0.00  0.00  1.00  0.00  0.00  0.00  0.99  0.00
  124                     1.00   0.00  0.00  0.00  1.00  0.00  0.00  0.00  0.99  0.00
  125                     1.00   0.00  0.00  0.00  1.00  0.00  0.00  0.00  0.98  0.00
  126                     1.00   0.00  0.00  0.00  1.00  0.00  0.00  0.00  0.98  0.00
  127                     1.00   0.00  0.00  0.00  1.00  0.00  0.00  0.00  0.98  0.00
  128                     1.00   0.00  0.00  0.00  1.00  0.00  0.00  0.00  0.97  0.00
  129                     1.00   0.00  0.00  0.00  1.00  0.00  0.00  0.00  0.97  0.00
  130                     1.00   0.00  0.00  0.00  1.00  0.00  0.00  0.00  0.97  0.00
  131                     1.00   0.00  0.00  0.00  1.00  0.00  0.00  0.00  0.99  0.00
  132                     1.00   0.00  0.00  0.00  1.00  0.00  0.00  0.00  0.99  0.00
  133                     1.00   0.00  0.00  0.00  1.00  0.00  0.00  0.00  0.99  0.00
  134                     1.00   0.00  0.00  0.00  1.00  0.00  0.00  0.00  0.99  0.00
  135                     1.00   0.00  0.00  0.00  1.00  0.00  0.00  0.00  0.98  0.00
  136                     1.00   0.00  0.00  0.00  1.00  0.00  0.00  0.00  0.98  0.00
  137                     1.00   0.00  0.00  0.00  1.00  0.00  0.00  0.00  0.98  0.00
  138                     1.00   0.00  0.00  0.00  1.00  0.00  0.00  0.00  0.97  0.00
  139                     1.00   0.00  0.00  0.00  1.00  0.00  0.00  0.00  0.98  0.00
  140                     1.00   0.00  0.00  0.00  1.00  0.00  0.00  0.00  0.45  0.00
  141                     1.00   0.00  0.00  0.00  1.00  0.00  0.00  0.00  0.99  0.00
  142                     1.00   0.00  0.00  0.00  1.00  0.00  0.00  0.00  0.99  0.00
  143                     1.00   0.00  0.00  0.00  1.00  0.00  0.00  0.00  0.99  0.00
  144                     1.00   0.00  0.00  0.00  1.00  0.00  0.00  0.00  0.99  0.00
  145                     1.00   0.00  0.00  0.00  1.00  0.00  0.00  0.00  0.98  0.00
  146                     1.00   0.00  0.00  0.00  1.00  0.00  0.00  0.00  0.98  0.00
  147                     1.00   0.00  0.00  0.00  1.00  0.00  0.00  0.00  0.98  0.00
  148                     1.00   0.00  0.00  0.00  1.00  0.00  0.00  0.00  0.97  0.00
  149                     1.00   0.00  0.00  0.00  1.00  0.00  0.00  0.00  0.44  0.00
  150                     1.00   0.00  0.00  0.00  1.00  0.00  0.00  0.00  0.23  0.00
  151                     1.00   0.00  0.00  0.00  1.00  0.00  0.00  0.00  0.99  0.00
  152                     1.00   0.00  0.00  0.00  1.00  0.00  0.00  0.00  0.99  0.00
  153                     1.00   0.00  0.00  0.00  1.00  0.00  0.00  0.00  0.99  0.00
  154                     1.00   0.00  0.00  0.00  1.00  0.00  0.00  0.00  0.99  0.00
  155                     1.00   0.00  0.00  0.00  1.00  0.00  0.00  0.00  0.98  0.00
  156                     1.00   0.00  0.00  0.00  1.00  0.00  0.00  0.00  0.98  0.00
  157                     1.00   0.00  0.00  0.00  1.00  0.00  0.00  0.00  0.98  0.00
  158                     1.00   0.00  0.00  0.00  1.00  0.00  0.00  0.00  0.50  0.00
  159                     1.00   0.00  0.00  0.00  1.00  0.00  0.00  0.00  0.23  0.00
  160                     1.00   0.00  0.00  0.00  1.00  0.00  0.00  0.00  0.14  0.00
  161                     1.00   0.00  0.00  0.00  1.00  0.00  0.00  0.00  0.99  0.00
  162                     1.00   0.00  0.00  0.00  1.00  0.00  0.00  0.00  0.99  0.00
  163                     1.00   0.00  0.00  0.00  1.00  0.00  0.00  0.00  0.99  0.00
  164                     1.00   0.00  0.00  0.00  1.00  0.00  0.00  0.00  0.99  0.00
  165                     1.00   0.00  0.00  0.00  1.00  0.00  0.00  0.00  0.98  0.00
  166                     1.00   0.00  0.00  0.00  1.00  0.00  0.00  0.00  0.98  0.00
  167                     1.00   0.00  0.00  0.00  1.00  0.00  0.00  0.00  0.70  0.00
  168                     1.00   0.00  0.00  0.00  1.00  0.00  0.00  0.00  0.26  0.00
  169                     1.00   0.00  0.00  0.00  1.00  0.00  0.00  0.00  0.14  0.00
  170                     1.00   0.00  0.00  0.00  1.00  0.00  0.00  0.00  0.09  0.00
  171                     1.00   0.00  0.00  0.00  1.00  0.00  0.00  0.00  0.99  0.00
  172                     1.00   0.00  0.00  0.00  1.00  0.00  0.00  0.00  0.99  0.00
  173                     1.00   0.00  0.00  0.00  1.00  0.00  0.00  0.00  0.99  0.00
  174                     1.00   0.00  0.00  0.00  1.00  0.00  0.00  0.00  0.99  0.00
  175                     1.00   0.00  0.00  0.00  1.00  0.00  0.00  0.00  0.98  0.00
  176                     1.00   0.00  0.00  0.00  1.00  0.00  0.00  0.00  0.98  0.00
  177                     1.00   0.00  0.00  0.00  1.00  0.00  0.00  0.00  0.37  0.00
  178                     1.00   0.00  0.00  0.00  1.00  0.00  0.00  0.00  0.17  0.00
  179                     1.00   0.00  0.00  0.00  1.00  0.00  0.00  0.00  0.09  0.00
  180                     1.00   0.00  0.00  0.00  1.00  0.00  0.00  0.00  0.07  0.00
  181                     1.00   0.00  0.00  0.00  1.00  0.00  0.00  0.00  0.99  0.00
  182                     1.00   0.00  0.00  0.00  1.00  0.00  0.00  0.00  0.99  0.00
  183                     1.00   0.00  0.00  0.00  1.00  0.00  0.00  0.00  0.99  0.00
  184                     1.00   0.00  0.00  0.00  1.00  0.00  0.00  0.00  0.99  0.00
  185                     1.00   0.00  0.00  0.00  1.00  0.00  0.00  0.00  0.98  0.00
  186                     1.00   0.00  0.00  0.00  1.00  0.00  0.00  0.00  0.80  0.00
  187                     1.00   0.00  0.00  0.00  1.00  0.00  0.00  0.00  0.25  0.00
  188                     1.00   0.00  0.00  0.00  1.00  0.00  0.00  0.00  0.12  0.00
  189                     1.00   0.00  0.00  0.00  1.00  0.00  0.00  0.00  0.07  0.00
  190                     1.00   0.00  0.00  0.00  1.00  0.00  0.00  0.00  0.05  0.00
  191                     1.00   0.00  0.00  0.00  1.00  0.00  0.00  0.00  0.99  0.00
  192                     1.00   0.00  0.00  0.00  1.00  0.00  0.00  0.00  0.99  0.00
  193                     1.00   0.00  0.00  0.00  1.00  0.00  0.00  0.00  0.99  0.00
  194                     1.00   0.00  0.00  0.00  1.00  0.00  0.00  0.00  0.99  0.00
  195                     1.00   0.00  0.00  0.00  1.00  0.00  0.00  0.00  0.98  0.00
  196                     1.00   0.00  0.00  0.00  1.00  0.00  0.00  0.00  0.62  0.00
  197                     1.00   0.00  0.00  0.00  1.00  0.00  0.00  0.00  0.21  0.00
  198                     1.00   0.00  0.00  0.00  1.00  0.00  0.00  0.00  0.10  0.00
  199                     1.00   0.00  0.00  0.00  1.00  0.00  0.00  0.00  0.05  0.00
  200                     1.00   0.00  0.00  0.00  1.00  0.00  0.00  0.00  0.04  0.00
  201                     1.00   0.00  0.00  0.00  1.00  0.00  0.00  0.00  0.99  0.00
  202                     1.00   0.00  0.00  0.00  1.00  0.00  0.00  0.00  0.99  0.00
  203                     1.00   0.00  0.00  0.00  1.00  0.00  0.00  0.00  0.99  0.00
  204                     1.00   0.00  0.00  0.00  1.00  0.00  0.00  0.00  0.99  0.00
  205                     1.00   0.00  0.00  0.00  1.00  0.00  0.00  0.00  0.98  0.00
  206                     1.00   0.00  0.00  0.00  1.00  0.00  0.00  0.00  0.94  0.00
  207                     1.00   0.00  0.00  0.00  1.00  0.00  0.00  0.00  0.20  0.00
  208                     1.00   0.00  0.00  0.00  1.00  0.00  0.00  0.00  0.08  0.00
  209                     1.00   0.00  0.00  0.00  1.00  0.00  0.00  0.00  0.05  0.00
  210                     1.00   0.00  0.00  0.00  1.00  0.00  0.00  0.00  0.04  0.00
  211                     1.00   0.00  0.00  0.00  1.00  0.00  0.00  0.00  0.99  0.00
  212                     1.00   0.00  0.00  0.00  1.00  0.00  0.00  0.00  0.99  0.00
  213                     1.00   0.00  0.00  0.00  1.00  0.00  0.00  0.00  0.99  0.00
  214                     1.00   0.00  0.00  0.00  1.00  0.00  0.00  0.00  0.99  0.00
  215                     1.00   0.00  0.00  0.00  1.00  0.00  0.00  0.00  0.98  0.00
  216                     1.00   0.00  0.00  0.00  1.00  0.00  0.00  0.00  0.98  0.00
  217                     1.00   0.00  0.00  0.00  1.00  0.00  0.00  0.00  0.29  0.00
  218                     1.00   0.00  0.00  0.00  1.00  0.00  0.00  0.00  0.08  0.00
  219                     1.00   0.00  0.00  0.00  1.00  0.00  0.00  0.00  0.04  0.00
  220                     1.00   0.00  0.00  0.00  1.00  0.00  0.00  0.00  0.03  0.00
  221                     1.00   0.00  0.00  0.00  1.00  0.00  0.00  0.00  0.99  0.00
  222                     1.00   0.00  0.00  0.00  1.00  0.00  0.00  0.00  0.99  0.00
  223                     1.00   0.00  0.00  0.00  1.00  0.00  0.00  0.00  0.99  0.00
  224                     1.00   0.00  0.00  0.00  1.00  0.00  0.00  0.00  0.99  0.00
  225                     1.00   0.00  0.00  0.00  1.00  0.00  0.00  0.00  0.98  0.00
  226                     1.00   0.00  0.00  0.00  1.00  0.00  0.00  0.00  0.98  0.00
  227                     1.00   0.00  0.00  0.00  1.00  0.00  0.00  0.00  0.98  0.00
  228                     1.00   0.00  0.00  0.00  1.00  0.00  0.00  0.00  0.14  0.00
  229                     1.00   0.00  0.00  0.00  1.00  0.00  0.00  0.00  0.03  0.00
  230                     1.00   0.00  0.00  0.00  1.00  0.00  0.00  0.00  0.03  0.00
  231                     1.00   0.00  0.00  0.00  1.00  0.00  0.00  0.00  0.45  0.00
  232                     1.00   0.00  0.00  0.00  1.00  0.00  0.00  0.00  0.25  0.00
  233                     1.00   0.00  0.00  0.00  1.00  0.00  0.00  0.00  0.16  0.00
  234                     1.00   0.00  0.00  0.00  1.00  0.00  0.00  0.00  0.10  0.00
  235                     1.00   0.00  0.00  0.00  1.00  0.00  0.00  0.00  0.06  0.00
  236                     1.00   0.00  0.00  0.00  1.00  0.00  0.00  0.00  0.04  0.00
  237                     1.00   0.00  0.00  0.00  1.00  0.00  0.00  0.00  0.03  0.00
  238                     1.00   0.00  0.00  0.00  1.00  0.00  0.00  0.00  0.02  0.00
  239                     1.00   0.00  0.00  0.00  1.00  0.00  0.00  0.00  0.01  0.00
  240                     1.00   0.00  0.00  0.00  1.00  0.00  0.00  0.00  0.04  0.00
  241                     1.00   0.00  0.00  0.00  1.00  0.00  0.00  0.00  0.00  0.00
  
  
  *************************
  Conduit Surcharge Summary
  *************************
  
  ----------------------------------------------------------------------------
                                                           Hours        Hours 
                         --------- Hours Full --------   Above Full   Capacity
  Conduit                Both Ends  Upstream  Dnstream   Normal Flow   Limited
  ----------------------------------------------------------------------------
  140                         0.01      0.01      0.57      0.01         0.01
  150                         0.01      0.01      3.98      0.01         0.01
  159                         0.01      0.01      3.77      0.01         0.01
  160                         3.77      3.77      4.82      0.01         0.01
  168                         0.01      0.01      3.27      0.01         0.01
  169                         3.27      3.27      4.66      0.01         0.01
  170                         4.66      4.66      5.21      0.01         0.01
  177                         0.01      0.01      1.16      0.01         0.01
  178                         1.16      1.16      4.29      0.01         0.01
  179                         4.29      4.29      5.07      0.01         0.01
  180                         5.07      5.07      5.43      0.01         0.01
  187                         0.01      0.01      3.15      0.01         0.01
  188                         3.15      3.15      4.71      0.01         0.01
  189                         4.71      4.71      5.28      0.01         0.01
  190                         5.28      5.28      5.55      0.01         0.01
  197                         0.01      0.01      3.58      0.01         0.01
  198                         3.58      3.58      4.93      0.01         0.01
  199                         4.93      4.93      5.40      0.01         0.01
  200                         5.40      5.40      5.61      0.01         0.01
  207                         0.01      0.01      3.34      0.01         0.01
  208                         3.34      3.34      5.00      0.01         0.01
  209                         5.00      5.00      5.46      0.01         0.01
  210                         5.46      5.46      5.65      0.01         0.01
  218                         0.01      0.01      4.84      0.01         0.01
  219                         4.84      4.84      5.49      0.01         0.01
  220                         5.49      5.49      5.68      0.01         0.01
  228                         0.01      0.01      1.36      0.01         0.01
  229                         1.36      1.36      5.47      0.01         0.01
  230                         5.47      5.47      5.74      0.01         0.01
  231                         0.01      0.01      0.57      0.01         0.01
  232                         0.57      0.57      3.98      0.01         0.01
  233                         3.98      3.98      4.82      0.01         0.01
  234                         4.82      4.82      5.21      0.01         0.01
  235                         5.21      5.21      5.43      0.01         0.01
  236                         5.43      5.43      5.55      0.01         0.01
  237                         5.55      5.55      5.61      0.01         0.01
  238                         5.61      5.61      5.65      4.63         4.45
  239                         5.65      5.65      5.68      5.37         5.34
  240                         5.68      5.68      5.74      5.57         5.53
  241                         0.01      5.74      0.01      5.91         5.61
  

  Analysis begun on:  Mon Nov 28 19:15:17 2022
  Analysis ended on:  Mon Nov 28 19:15:19 2022
  Total elapsed time: 00:00:02