
  EPA STORM WATER MANAGEMENT MODEL - VERSION 5.1 (Build 5.1.015)
  --------------------------------------------------------------

  WARNING 04: minimum elevation drop used for Conduit 241
  
  *********************************************************
  NOTE: The summary statistics displayed in this report are
  based on results found at every computational time step,  
  not just on results from each reporting time step.
  *********************************************************
  
  ****************
  Analysis Options
  ****************
  Flow Units ............... CMS
  Process Models:
    Rainfall/Runoff ........ NO
    RDII ................... NO
    Snowmelt ............... NO
    Groundwater ............ NO
    Flow Routing ........... YES
    Ponding Allowed ........ NO
    Water Quality .......... NO
  Flow Routing Method ...... DYNWAVE
  Surcharge Method ......... SLOT
  Starting Date ............ 10/31/2022 00:00:00
  Ending Date .............. 10/31/2022 06:00:00
  Antecedent Dry Days ...... 0.0
  Report Time Step ......... 00:00:10
  Routing Time Step ........ 1.00 sec
  Variable Time Step ....... NO
  Maximum Trials ........... 8
  Number of Threads ........ 6
  Head Tolerance ........... 0.001500 m
  
  
  **************************        Volume        Volume
  Flow Routing Continuity        hectare-m      10^6 ltr
  **************************     ---------     ---------
  Dry Weather Inflow .......         0.000         0.000
  Wet Weather Inflow .......         0.000         0.000
  Groundwater Inflow .......         0.000         0.000
  RDII Inflow ..............         0.000         0.000
  External Inflow ..........         4.541        45.406
  External Outflow .........         3.661        36.610
  Flooding Loss ............         0.000         0.000
  Evaporation Loss .........         0.000         0.000
  Exfiltration Loss ........         0.000         0.000
  Initial Stored Volume ....         0.000         0.000
  Final Stored Volume ......         0.882         8.821
  Continuity Error (%) .....        -0.055
  
  
  *************************
  Highest Continuity Errors
  *************************
  Node A09 (5.63%)
  Node J00 (5.63%)
  Node K00 (5.57%)
  Node A10 (5.57%)
  Node J01 (5.34%)
  
  
  ********************************
  Highest Flow Instability Indexes
  ********************************
  All links are stable.
  
  
  *************************
  Routing Time Step Summary
  *************************
  Minimum Time Step           :     1.00 sec
  Average Time Step           :     1.00 sec
  Maximum Time Step           :     1.00 sec
  Percent in Steady State     :     0.00
  Average Iterations per Step :     2.00
  Percent Not Converging      :     0.00
  
  
  ******************
  Node Depth Summary
  ******************
  
  ---------------------------------------------------------------------------------
                                 Average  Maximum  Maximum  Time of Max    Reported
                                   Depth    Depth      HGL   Occurrence   Max Depth
  Node                 Type       Meters   Meters   Meters  days hr:min      Meters
  ---------------------------------------------------------------------------------
  A00                  JUNCTION     0.07     0.07     2.07     0  00:48        0.07
  A01                  JUNCTION     0.08     0.08     1.98     0  01:02        0.08
  A02                  JUNCTION     0.09     0.09     1.89     0  01:06        0.09
  A03                  JUNCTION     0.09     0.09     1.79     0  01:10        0.09
  A04                  JUNCTION     0.09     0.09     1.69     0  01:13        0.09
  A05                  JUNCTION     0.09     0.09     1.59     0  01:16        0.09
  A06                  JUNCTION     0.09     0.10     1.50     0  06:00        0.10
  A07                  JUNCTION     0.12     0.19     1.49     0  06:00        0.19
  A08                  JUNCTION     0.17     0.29     1.49     0  06:00        0.29
  A09                  JUNCTION     0.25     0.39     1.49     0  06:00        0.39
  A10                  JUNCTION     0.33     0.49     1.49     0  06:00        0.49
  B00                  JUNCTION     0.08     0.08     1.98     0  01:02        0.08
  B01                  JUNCTION     0.10     0.10     1.90     0  01:15        0.10
  B02                  JUNCTION     0.11     0.11     1.81     0  01:19        0.11
  B03                  JUNCTION     0.12     0.12     1.72     0  01:22        0.12
  B04                  JUNCTION     0.12     0.12     1.62     0  01:25        0.12
  B05                  JUNCTION     0.12     0.13     1.53     0  01:28        0.13
  B06                  JUNCTION     0.14     0.20     1.50     0  06:00        0.20
  B07                  JUNCTION     0.19     0.29     1.49     0  06:00        0.29
  B08                  JUNCTION     0.25     0.39     1.49     0  06:00        0.39
  B09                  JUNCTION     0.33     0.49     1.49     0  06:00        0.49
  B10                  JUNCTION     0.43     0.59     1.49     0  06:00        0.59
  C00                  JUNCTION     0.09     0.09     1.89     0  01:06        0.09
  C01                  JUNCTION     0.11     0.11     1.81     0  01:19        0.11
  C02                  JUNCTION     0.13     0.13     1.73     0  01:23        0.13
  C03                  JUNCTION     0.14     0.14     1.64     0  01:26        0.14
  C04                  JUNCTION     0.14     0.15     1.55     0  01:29        0.15
  C05                  JUNCTION     0.16     0.20     1.50     0  06:00        0.20
  C06                  JUNCTION     0.20     0.29     1.49     0  06:00        0.29
  C07                  JUNCTION     0.26     0.39     1.49     0  06:00        0.39
  C08                  JUNCTION     0.34     0.49     1.49     0  06:00        0.49
  C09                  JUNCTION     0.42     0.59     1.49     0  06:00        0.59
  C10                  JUNCTION     0.52     0.69     1.49     0  06:00        0.69
  D00                  JUNCTION     0.09     0.09     1.79     0  01:10        0.09
  D01                  JUNCTION     0.12     0.12     1.72     0  01:22        0.12
  D02                  JUNCTION     0.14     0.14     1.64     0  01:26        0.14
  D03                  JUNCTION     0.15     0.15     1.55     0  01:28        0.15
  D04                  JUNCTION     0.17     0.20     1.50     0  06:00        0.20
  D05                  JUNCTION     0.21     0.29     1.49     0  06:00        0.29
  D06                  JUNCTION     0.27     0.39     1.49     0  06:00        0.39
  D07                  JUNCTION     0.34     0.49     1.49     0  06:00        0.49
  D08                  JUNCTION     0.42     0.59     1.49     0  06:00        0.59
  D09                  JUNCTION     0.51     0.69     1.49     0  06:00        0.69
  D10                  JUNCTION     0.61     0.79     1.49     0  06:00        0.79
  E00                  JUNCTION     0.09     0.09     1.69     0  01:13        0.09
  E01                  JUNCTION     0.12     0.12     1.62     0  01:25        0.12
  E02                  JUNCTION     0.14     0.15     1.55     0  01:29        0.15
  E03                  JUNCTION     0.17     0.20     1.50     0  06:00        0.20
  E04                  JUNCTION     0.21     0.29     1.49     0  06:00        0.29
  E05                  JUNCTION     0.27     0.39     1.49     0  06:00        0.39
  E06                  JUNCTION     0.34     0.49     1.49     0  06:00        0.49
  E07                  JUNCTION     0.42     0.59     1.49     0  06:00        0.59
  E08                  JUNCTION     0.51     0.69     1.49     0  06:00        0.69
  E09                  JUNCTION     0.60     0.79     1.49     0  06:00        0.79
  E10                  JUNCTION     0.70     0.89     1.49     0  06:00        0.89
  F00                  JUNCTION     0.09     0.09     1.59     0  01:16        0.09
  F01                  JUNCTION     0.12     0.13     1.53     0  01:28        0.13
  F02                  JUNCTION     0.16     0.20     1.50     0  06:00        0.20
  F03                  JUNCTION     0.21     0.29     1.49     0  06:00        0.29
  F04                  JUNCTION     0.27     0.39     1.49     0  06:00        0.39
  F05                  JUNCTION     0.34     0.49     1.49     0  06:00        0.49
  F06                  JUNCTION     0.42     0.59     1.49     0  06:00        0.59
  F07                  JUNCTION     0.51     0.69     1.49     0  06:00        0.69
  F08                  JUNCTION     0.60     0.79     1.49     0  06:00        0.79
  F09                  JUNCTION     0.69     0.89     1.49     0  06:00        0.89
  F10                  JUNCTION     0.79     0.99     1.49     0  06:00        0.99
  G00                  JUNCTION     0.09     0.10     1.50     0  06:00        0.10
  G01                  JUNCTION     0.14     0.20     1.50     0  06:00        0.20
  G02                  JUNCTION     0.20     0.29     1.49     0  06:00        0.29
  G03                  JUNCTION     0.27     0.39     1.49     0  06:00        0.39
  G04                  JUNCTION     0.34     0.49     1.49     0  06:00        0.49
  G05                  JUNCTION     0.42     0.59     1.49     0  06:00        0.59
  G06                  JUNCTION     0.51     0.69     1.49     0  06:00        0.69
  G07                  JUNCTION     0.59     0.78     1.48     0  06:00        0.78
  G08                  JUNCTION     0.68     0.88     1.48     0  06:00        0.88
  G09                  JUNCTION     0.78     0.98     1.48     0  06:00        0.98
  G10                  JUNCTION     0.88     1.08     1.48     0  06:00        1.08
  H00                  JUNCTION     0.12     0.19     1.49     0  06:00        0.19
  H01                  JUNCTION     0.19     0.29     1.49     0  06:00        0.29
  H02                  JUNCTION     0.26     0.39     1.49     0  06:00        0.39
  H03                  JUNCTION     0.34     0.49     1.49     0  06:00        0.49
  H04                  JUNCTION     0.42     0.59     1.49     0  06:00        0.59
  H05                  JUNCTION     0.51     0.69     1.49     0  06:00        0.69
  H06                  JUNCTION     0.59     0.78     1.48     0  06:00        0.78
  H07                  JUNCTION     0.68     0.88     1.48     0  06:00        0.88
  H08                  JUNCTION     0.77     0.98     1.48     0  06:00        0.98
  H09                  JUNCTION     0.87     1.08     1.48     0  06:00        1.08
  H10                  JUNCTION     0.97     1.18     1.48     0  06:00        1.18
  I00                  JUNCTION     0.17     0.29     1.49     0  06:00        0.29
  I01                  JUNCTION     0.25     0.39     1.49     0  06:00        0.39
  I02                  JUNCTION     0.34     0.49     1.49     0  06:00        0.49
  I03                  JUNCTION     0.42     0.59     1.49     0  06:00        0.59
  I04                  JUNCTION     0.51     0.69     1.49     0  06:00        0.69
  I05                  JUNCTION     0.60     0.79     1.49     0  06:00        0.79
  I06                  JUNCTION     0.68     0.88     1.48     0  06:00        0.88
  I07                  JUNCTION     0.77     0.98     1.48     0  06:00        0.98
  I08                  JUNCTION     0.86     1.07     1.47     0  06:00        1.07
  I09                  JUNCTION     0.95     1.17     1.47     0  06:00        1.17
  I10                  JUNCTION     1.05     1.26     1.46     0  06:00        1.26
  J00                  JUNCTION     0.25     0.39     1.49     0  06:00        0.39
  J01                  JUNCTION     0.33     0.49     1.49     0  06:00        0.49
  J02                  JUNCTION     0.42     0.59     1.49     0  06:00        0.59
  J03                  JUNCTION     0.51     0.69     1.49     0  06:00        0.69
  J04                  JUNCTION     0.60     0.79     1.49     0  06:00        0.79
  J05                  JUNCTION     0.69     0.89     1.49     0  06:00        0.89
  J06                  JUNCTION     0.78     0.98     1.48     0  06:00        0.98
  J07                  JUNCTION     0.87     1.08     1.48     0  06:00        1.08
  J08                  JUNCTION     0.95     1.17     1.47     0  06:00        1.17
  J09                  JUNCTION     1.04     1.25     1.45     0  06:00        1.25
  J10                  JUNCTION     1.12     1.33     1.43     0  06:00        1.33
  K00                  JUNCTION     0.33     0.49     1.49     0  06:00        0.49
  K01                  JUNCTION     0.43     0.59     1.49     0  06:00        0.59
  K02                  JUNCTION     0.52     0.69     1.49     0  06:00        0.69
  K03                  JUNCTION     0.61     0.79     1.49     0  06:00        0.79
  K04                  JUNCTION     0.70     0.89     1.49     0  06:00        0.89
  K05                  JUNCTION     0.79     0.99     1.49     0  06:00        0.99
  K06                  JUNCTION     0.88     1.08     1.48     0  06:00        1.08
  K07                  JUNCTION     0.97     1.18     1.48     0  06:00        1.18
  K08                  JUNCTION     1.05     1.26     1.46     0  06:00        1.26
  K09                  JUNCTION     1.12     1.33     1.43     0  06:00        1.33
  K10                  JUNCTION     1.15     1.33     1.33     0  06:00        1.33
  Outfall              OUTFALL      0.73     0.82     0.82     0  06:00        0.82
  
  
  *******************
  Node Inflow Summary
  *******************
  
  -------------------------------------------------------------------------------------------------
                                  Maximum  Maximum                  Lateral       Total        Flow
                                  Lateral    Total  Time of Max      Inflow      Inflow     Balance
                                   Inflow   Inflow   Occurrence      Volume      Volume       Error
  Node                 Type           CMS      CMS  days hr:min    10^6 ltr    10^6 ltr     Percent
  -------------------------------------------------------------------------------------------------
  A00                  JUNCTION     0.017    0.017     0  00:00       0.375       0.375       0.567
  A01                  JUNCTION     0.017    0.026     0  00:48       0.375       0.562       0.781
  A02                  JUNCTION     0.017    0.030     0  01:02       0.375       0.654       0.744
  A03                  JUNCTION     0.017    0.033     0  01:06       0.375         0.7       0.730
  A04                  JUNCTION     0.017    0.034     0  01:10       0.375       0.723       0.724
  A05                  JUNCTION     0.017    0.034     0  01:13       0.375       0.734       0.721
  A06                  JUNCTION     0.017    0.034     0  01:16       0.375        0.74       0.848
  A07                  JUNCTION     0.017    0.036     0  06:00       0.375       0.745       2.187
  A08                  JUNCTION     0.017    0.038     0  06:00       0.375       0.764       3.896
  A09                  JUNCTION     0.017    0.037     0  06:00       0.375       0.762       5.962
  A10                  JUNCTION     0.017    0.035     0  01:13       0.375       0.682       5.897
  B00                  JUNCTION     0.017    0.026     0  00:48       0.375       0.562       0.781
  B01                  JUNCTION     0.017    0.043     0  01:02       0.375       0.933       0.902
  B02                  JUNCTION     0.017    0.054     0  01:15       0.375        1.16       0.847
  B03                  JUNCTION     0.017    0.061     0  01:19       0.375         1.3       0.822
  B04                  JUNCTION     0.017    0.065     0  01:22       0.375        1.38       0.808
  B05                  JUNCTION     0.017    0.067     0  01:25       0.375        1.42       0.801
  B06                  JUNCTION     0.017    0.068     0  01:28       0.375        1.44       1.510
  B07                  JUNCTION     0.017    0.069     0  01:31       0.375        1.44       2.687
  B08                  JUNCTION     0.017    0.069     0  01:33       0.375        1.44       4.075
  B09                  JUNCTION     0.017    0.069     0  01:14       0.375        1.43       5.645
  B10                  JUNCTION     0.017    0.087     0  00:44       0.375        1.45       5.173
  C00                  JUNCTION     0.017    0.030     0  01:02       0.375       0.654       0.744
  C01                  JUNCTION     0.017    0.054     0  01:15       0.375        1.16       0.847
  C02                  JUNCTION     0.017    0.072     0  01:19       0.375        1.53       0.784
  C03                  JUNCTION     0.017    0.084     0  01:23       0.375        1.78       0.752
  C04                  JUNCTION     0.017    0.091     0  01:26       0.375        1.94       0.733
  C05                  JUNCTION     0.017    0.097     0  01:29       0.375        2.04       1.103
  C06                  JUNCTION     0.017    0.100     0  01:31       0.375        2.09       1.852
  C07                  JUNCTION     0.017    0.102     0  01:33       0.375         2.1       2.763
  C08                  JUNCTION     0.017    0.103     0  01:23       0.375         2.1       3.769
  C09                  JUNCTION     0.017    0.105     0  00:55       0.375        2.09       4.818
  C10                  JUNCTION     0.017    0.143     0  00:34       0.375        2.22       4.028
  D00                  JUNCTION     0.017    0.033     0  01:06       0.375         0.7       0.730
  D01                  JUNCTION     0.017    0.061     0  01:19       0.375         1.3       0.822
  D02                  JUNCTION     0.017    0.084     0  01:23       0.375        1.78       0.752
  D03                  JUNCTION     0.017    0.101     0  01:26       0.375        2.14       0.713
  D04                  JUNCTION     0.017    0.114     0  01:29       0.375         2.4       0.963
  D05                  JUNCTION     0.017    0.122     0  01:31       0.375        2.57       1.512
  D06                  JUNCTION     0.017    0.128     0  01:33       0.375        2.66       2.170
  D07                  JUNCTION     0.017    0.132     0  01:29       0.375        2.71       2.891
  D08                  JUNCTION     0.017    0.135     0  01:00       0.375        2.72       3.647
  D09                  JUNCTION     0.017    0.150     0  00:42       0.375        2.76       4.346
  D10                  JUNCTION     0.017    0.201     0  00:33       0.375        2.94       3.491
  E00                  JUNCTION     0.017    0.034     0  01:10       0.375       0.723       0.724
  E01                  JUNCTION     0.017    0.065     0  01:22       0.375        1.38       0.808
  E02                  JUNCTION     0.017    0.091     0  01:26       0.375        1.94       0.733
  E03                  JUNCTION     0.017    0.114     0  01:29       0.375         2.4       0.963
  E04                  JUNCTION     0.017    0.131     0  01:30       0.375        2.75       1.415
  E05                  JUNCTION     0.017    0.144     0  01:33       0.375        2.99       1.926
  E06                  JUNCTION     0.017    0.154     0  01:34       0.375        3.17       2.457
  E07                  JUNCTION     0.017    0.163     0  06:00       0.375        3.29       2.991
  E08                  JUNCTION     0.017    0.166     0  00:45       0.375        3.36       3.537
  E09                  JUNCTION     0.017    0.200     0  00:33       0.375        3.43       4.011
  E10                  JUNCTION     0.017    0.262     0  00:31       0.375        3.58       3.172
  F00                  JUNCTION     0.017    0.034     0  01:13       0.375       0.734       0.721
  F01                  JUNCTION     0.017    0.067     0  01:25       0.375        1.42       0.801
  F02                  JUNCTION     0.017    0.097     0  01:29       0.375        2.04       1.103
  F03                  JUNCTION     0.017    0.122     0  01:31       0.375        2.57       1.512
  F04                  JUNCTION     0.017    0.144     0  01:33       0.375        2.99       1.926
  F05                  JUNCTION     0.017    0.163     0  06:00       0.375        3.34       2.323
  F06                  JUNCTION     0.017    0.188     0  06:00       0.375        3.68       2.662
  F07                  JUNCTION     0.017    0.210     0  06:00       0.375        3.99       2.957
  F08                  JUNCTION     0.017    0.218     0  06:00       0.375        4.16       3.277
  F09                  JUNCTION     0.017    0.243     0  00:29       0.375        4.21       3.614
  F10                  JUNCTION     0.017    0.316     0  00:29       0.375        4.18       2.887
  G00                  JUNCTION     0.017    0.034     0  01:16       0.375        0.74       0.848
  G01                  JUNCTION     0.017    0.068     0  01:28       0.375        1.44       1.510
  G02                  JUNCTION     0.017    0.100     0  01:31       0.375        2.09       1.852
  G03                  JUNCTION     0.017    0.128     0  01:33       0.375        2.66       2.170
  G04                  JUNCTION     0.017    0.154     0  01:34       0.375        3.17       2.457
  G05                  JUNCTION     0.017    0.188     0  06:00       0.375        3.68       2.662
  G06                  JUNCTION     0.017    0.233     0  06:00       0.375         4.3       2.732
  G07                  JUNCTION     0.017    0.278     0  06:00       0.375        4.96       2.726
  G08                  JUNCTION     0.017    0.304     0  06:00       0.375        5.43       2.770
  G09                  JUNCTION     0.017    0.296     0  06:00       0.375         5.5       2.921
  G10                  JUNCTION     0.017    0.354     0  00:25       0.375        5.13       2.404
  H00                  JUNCTION     0.017    0.036     0  06:00       0.375       0.745       2.187
  H01                  JUNCTION     0.017    0.069     0  01:31       0.375        1.44       2.687
  H02                  JUNCTION     0.017    0.102     0  01:33       0.375         2.1       2.763
  H03                  JUNCTION     0.017    0.132     0  01:29       0.375        2.71       2.891
  H04                  JUNCTION     0.017    0.163     0  06:00       0.375        3.29       2.991
  H05                  JUNCTION     0.017    0.210     0  06:00       0.375        3.99       2.957
  H06                  JUNCTION     0.017    0.278     0  06:00       0.375        4.96       2.726
  H07                  JUNCTION     0.017    0.354     0  06:00       0.375        6.19       2.420
  H08                  JUNCTION     0.017    0.413     0  06:00       0.375        7.28       2.184
  H09                  JUNCTION     0.017    0.419     0  06:00       0.375        7.64       2.139
  H10                  JUNCTION     0.017    0.369     0  00:23       0.375         6.9       1.808
  I00                  JUNCTION     0.017    0.038     0  06:00       0.375       0.764       3.896
  I01                  JUNCTION     0.017    0.069     0  01:33       0.375        1.44       4.075
  I02                  JUNCTION     0.017    0.103     0  01:23       0.375         2.1       3.769
  I03                  JUNCTION     0.017    0.135     0  01:00       0.375        2.72       3.647
  I04                  JUNCTION     0.017    0.166     0  00:45       0.375        3.36       3.537
  I05                  JUNCTION     0.017    0.218     0  06:00       0.375        4.16       3.277
  I06                  JUNCTION     0.017    0.304     0  06:00       0.375        5.43       2.770
  I07                  JUNCTION     0.017    0.413     0  06:00       0.375        7.28       2.184
  I08                  JUNCTION     0.017    0.521     0  06:00       0.375         9.4       1.730
  I09                  JUNCTION     0.017    0.602     0  06:00       0.375          11       1.507
  I10                  JUNCTION     0.017    0.567     0  06:00       0.375        10.4       1.206
  J00                  JUNCTION     0.017    0.037     0  06:00       0.375       0.762       5.962
  J01                  JUNCTION     0.017    0.069     0  01:14       0.375        1.43       5.645
  J02                  JUNCTION     0.017    0.105     0  00:55       0.375        2.09       4.818
  J03                  JUNCTION     0.017    0.150     0  00:42       0.375        2.76       4.346
  J04                  JUNCTION     0.017    0.200     0  00:33       0.375        3.43       4.011
  J05                  JUNCTION     0.017    0.243     0  00:29       0.375        4.21       3.614
  J06                  JUNCTION     0.017    0.296     0  06:00       0.375         5.5       2.921
  J07                  JUNCTION     0.017    0.419     0  06:00       0.375        7.64       2.139
  J08                  JUNCTION     0.017    0.602     0  06:00       0.375          11       1.507
  J09                  JUNCTION     0.017    0.851     0  06:00       0.375        15.4       1.079
  J10                  JUNCTION     0.017    1.010     0  06:00       0.375        18.3       0.690
  K00                  JUNCTION     0.017    0.035     0  01:13       0.375       0.682       5.897
  K01                  JUNCTION     0.017    0.087     0  00:44       0.375        1.45       5.173
  K02                  JUNCTION     0.017    0.143     0  00:34       0.375        2.22       4.028
  K03                  JUNCTION     0.017    0.201     0  00:33       0.375        2.94       3.491
  K04                  JUNCTION     0.017    0.262     0  00:31       0.375        3.58       3.172
  K05                  JUNCTION     0.017    0.316     0  00:29       0.375        4.18       2.887
  K06                  JUNCTION     0.017    0.354     0  00:25       0.375        5.13       2.404
  K07                  JUNCTION     0.017    0.369     0  00:23       0.375         6.9       1.808
  K08                  JUNCTION     0.017    0.567     0  06:00       0.375        10.4       1.206
  K09                  JUNCTION     0.017    1.010     0  06:00       0.375        18.3       0.690
  K10                  JUNCTION     0.017    2.036     0  06:00       0.375        36.7       0.350
  Outfall              OUTFALL      0.000    2.036     0  06:00           0        36.6       0.000
  
  
  **********************
  Node Surcharge Summary
  **********************
  
  Surcharging occurs when water rises above the top of the highest conduit.
  ---------------------------------------------------------------------
                                               Max. Height   Min. Depth
                                   Hours       Above Crown    Below Rim
  Node                 Type      Surcharged         Meters       Meters
  ---------------------------------------------------------------------
  G10                  JUNCTION        2.42          0.082        8.918
  H09                  JUNCTION        2.34          0.077        8.923
  H10                  JUNCTION        3.66          0.176        8.824
  I08                  JUNCTION        2.29          0.073        8.927
  I09                  JUNCTION        3.59          0.166        8.834
  I10                  JUNCTION        4.46          0.263        8.737
  J07                  JUNCTION        2.34          0.077        8.923
  J08                  JUNCTION        3.59          0.166        8.834
  J09                  JUNCTION        4.40          0.249        8.751
  J10                  JUNCTION        4.91          0.332        8.668
  K06                  JUNCTION        2.42          0.082        8.918
  K07                  JUNCTION        3.66          0.176        8.824
  K08                  JUNCTION        4.46          0.263        8.737
  K09                  JUNCTION        4.91          0.332        8.668
  K10                  JUNCTION        5.13          0.333        8.667
  
  
  *********************
  Node Flooding Summary
  *********************
  
  No nodes were flooded.
  
  
  ***********************
  Outfall Loading Summary
  ***********************
  
  -----------------------------------------------------------
                         Flow       Avg       Max       Total
                         Freq      Flow      Flow      Volume
  Outfall Node           Pcnt       CMS       CMS    10^6 ltr
  -----------------------------------------------------------
  Outfall               99.91     1.697     2.036      36.610
  -----------------------------------------------------------
  System                99.91     1.697     2.036      36.610
  
  
  ********************
  Link Flow Summary
  ********************
  
  -----------------------------------------------------------------------------
                                 Maximum  Time of Max   Maximum    Max/    Max/
                                  |Flow|   Occurrence   |Veloc|    Full    Full
  Link                 Type          CMS  days hr:min     m/sec    Flow   Depth
  -----------------------------------------------------------------------------
  121                  CONDUIT     0.009     0  00:48      0.37    0.01    0.07
  122                  CONDUIT     0.013     0  01:02      0.42    0.01    0.08
  123                  CONDUIT     0.015     0  01:06      0.45    0.02    0.09
  124                  CONDUIT     0.016     0  01:10      0.46    0.02    0.09
  125                  CONDUIT     0.017     0  01:13      0.47    0.02    0.09
  126                  CONDUIT     0.017     0  01:16      0.47    0.02    0.10
  127                  CONDUIT     0.019     0  06:00      0.48    0.02    0.15
  128                  CONDUIT     0.021     0  06:00      0.48    0.02    0.24
  129                  CONDUIT     0.020     0  06:00      0.48    0.02    0.34
  130                  CONDUIT     0.017     0  01:13      0.37    0.02    0.44
  131                  CONDUIT     0.013     0  01:02      0.39    0.01    0.09
  132                  CONDUIT     0.022     0  01:15      0.47    0.02    0.11
  133                  CONDUIT     0.027     0  01:19      0.53    0.03    0.12
  134                  CONDUIT     0.030     0  01:22      0.55    0.03    0.12
  135                  CONDUIT     0.032     0  01:25      0.57    0.03    0.12
  136                  CONDUIT     0.033     0  01:28      0.58    0.03    0.16
  137                  CONDUIT     0.036     0  05:13      0.58    0.04    0.24
  138                  CONDUIT     0.035     0  02:13      0.59    0.04    0.34
  139                  CONDUIT     0.035     0  01:24      0.59    0.04    0.44
  140                  CONDUIT     0.035     0  00:44      0.41    0.04    0.54
  141                  CONDUIT     0.015     0  01:06      0.40    0.02    0.10
  142                  CONDUIT     0.027     0  01:19      0.50    0.03    0.12
  143                  CONDUIT     0.036     0  01:23      0.56    0.04    0.14
  144                  CONDUIT     0.042     0  01:26      0.60    0.04    0.14
  145                  CONDUIT     0.046     0  01:29      0.63    0.05    0.17
  146                  CONDUIT     0.049     0  06:00      0.64    0.05    0.25
  147                  CONDUIT     0.050     0  02:24      0.65    0.05    0.34
  148                  CONDUIT     0.051     0  01:31      0.66    0.05    0.44
  149                  CONDUIT     0.051     0  00:59      0.62    0.05    0.54
  150                  CONDUIT     0.039     0  00:27      0.37    0.04    0.64
  151                  CONDUIT     0.016     0  01:10      0.40    0.02    0.10
  152                  CONDUIT     0.030     0  01:22      0.51    0.03    0.13
  153                  CONDUIT     0.042     0  01:26      0.58    0.04    0.15
  154                  CONDUIT     0.050     0  01:28      0.63    0.05    0.18
  155                  CONDUIT     0.057     0  06:00      0.66    0.06    0.25
  156                  CONDUIT     0.061     0  02:29      0.69    0.06    0.34
  157                  CONDUIT     0.064     0  01:36      0.70    0.07    0.44
  158                  CONDUIT     0.066     0  01:04      0.71    0.07    0.54
  159                  CONDUIT     0.067     0  00:42      0.61    0.07    0.64
  160                  CONDUIT     0.042     0  00:32      0.35    0.04    0.74
  161                  CONDUIT     0.017     0  01:13      0.40    0.02    0.11
  162                  CONDUIT     0.032     0  01:25      0.51    0.03    0.14
  163                  CONDUIT     0.046     0  01:29      0.59    0.05    0.18
  164                  CONDUIT     0.057     0  01:30      0.65    0.06    0.25
  165                  CONDUIT     0.065     0  01:33      0.69    0.07    0.34
  166                  CONDUIT     0.072     0  01:39      0.72    0.07    0.44
  167                  CONDUIT     0.077     0  01:06      0.73    0.08    0.54
  168                  CONDUIT     0.080     0  00:46      0.74    0.08    0.64
  169                  CONDUIT     0.078     0  00:31      0.60    0.08    0.74
  170                  CONDUIT     0.046     0  00:30      0.34    0.05    0.84
  171                  CONDUIT     0.017     0  01:16      0.40    0.02    0.11
  172                  CONDUIT     0.033     0  01:28      0.51    0.03    0.16
  173                  CONDUIT     0.048     0  01:31      0.60    0.05    0.25
  174                  CONDUIT     0.061     0  01:33      0.66    0.06    0.34
  175                  CONDUIT     0.073     0  06:00      0.70    0.07    0.44
  176                  CONDUIT     0.081     0  06:00      0.74    0.08    0.54
  177                  CONDUIT     0.087     0  00:47      0.76    0.09    0.64
  178                  CONDUIT     0.092     0  00:36      0.75    0.09    0.74
  179                  CONDUIT     0.080     0  00:28      0.59    0.08    0.84
  180                  CONDUIT     0.046     0  00:24      0.34    0.05    0.94
  181                  CONDUIT     0.017     0  01:19      0.40    0.02    0.15
  182                  CONDUIT     0.034     0  01:31      0.51    0.03    0.24
  183                  CONDUIT     0.050     0  01:33      0.60    0.05    0.34
  184                  CONDUIT     0.068     0  06:00      0.66    0.07    0.44
  185                  CONDUIT     0.090     0  06:00      0.71    0.09    0.54
  186                  CONDUIT     0.108     0  06:00      0.75    0.11    0.64
  187                  CONDUIT     0.116     0  06:00      0.77    0.12    0.73
  188                  CONDUIT     0.109     0  06:00      0.75    0.11    0.83
  189                  CONDUIT     0.085     0  06:00      0.59    0.09    0.93
  190                  CONDUIT     0.055     0  06:00      0.34    0.06    1.00
  191                  CONDUIT     0.017     0  01:22      0.40    0.02    0.24
  192                  CONDUIT     0.034     0  01:33      0.51    0.03    0.34
  193                  CONDUIT     0.056     0  06:00      0.60    0.06    0.44
  194                  CONDUIT     0.083     0  06:00      0.67    0.08    0.54
  195                  CONDUIT     0.113     0  06:00      0.72    0.11    0.64
  196                  CONDUIT     0.144     0  06:00      0.76    0.15    0.73
  197                  CONDUIT     0.168     0  06:00      0.78    0.17    0.83
  198                  CONDUIT     0.177     0  06:00      0.75    0.18    0.93
  199                  CONDUIT     0.161     0  06:00      0.59    0.16    1.00
  200                  CONDUIT     0.095     0  04:16      0.34    0.10    1.00
  201                  CONDUIT     0.017     0  06:00      0.40    0.02    0.34
  202                  CONDUIT     0.040     0  06:00      0.51    0.04    0.44
  203                  CONDUIT     0.068     0  06:00      0.60    0.07    0.54
  204                  CONDUIT     0.100     0  06:00      0.67    0.10    0.64
  205                  CONDUIT     0.136     0  06:00      0.70    0.14    0.74
  206                  CONDUIT     0.178     0  06:00      0.74    0.18    0.83
  207                  CONDUIT     0.219     0  06:00      0.76    0.22    0.93
  208                  CONDUIT     0.252     0  06:00      0.72    0.26    1.00
  209                  CONDUIT     0.260     0  06:00      0.59    0.26    1.00
  210                  CONDUIT     0.185     0  06:00      0.34    0.19    1.00
  211                  CONDUIT     0.023     0  06:00      0.40    0.02    0.44
  212                  CONDUIT     0.051     0  06:00      0.51    0.05    0.54
  213                  CONDUIT     0.082     0  06:00      0.58    0.08    0.64
  214                  CONDUIT     0.115     0  06:00      0.70    0.12    0.74
  215                  CONDUIT     0.150     0  06:00      0.80    0.15    0.84
  216                  CONDUIT     0.194     0  06:00      0.87    0.20    0.93
  217                  CONDUIT     0.241     0  06:00      0.89    0.24    1.00
  218                  CONDUIT     0.325     0  06:00      0.83    0.33    1.00
  219                  CONDUIT     0.417     0  06:00      0.58    0.42    1.00
  220                  CONDUIT     0.426     0  06:00      0.54    0.43    1.00
  221                  CONDUIT     0.035     0  00:44      0.48    0.04    0.54
  222                  CONDUIT     0.087     0  00:39      0.64    0.09    0.64
  223                  CONDUIT     0.142     0  00:34      0.78    0.14    0.74
  224                  CONDUIT     0.199     0  00:32      0.87    0.20    0.84
  225                  CONDUIT     0.257     0  00:30      0.94    0.26    0.94
  226                  CONDUIT     0.305     0  00:28      1.01    0.31    1.00
  227                  CONDUIT     0.327     0  00:26      1.04    0.33    1.00
  228                  CONDUIT     0.364     0  06:00      0.98    0.37    1.00
  229                  CONDUIT     0.567     0  06:00      0.84    0.57    1.00
  230                  CONDUIT     1.009     0  06:00      1.29    1.02    1.00
  231                  CONDUIT     0.035     0  00:44      0.48    0.04    0.54
  232                  CONDUIT     0.087     0  00:39      0.64    0.09    0.64
  233                  CONDUIT     0.142     0  00:34      0.78    0.14    0.74
  234                  CONDUIT     0.199     0  00:32      0.87    0.20    0.84
  235                  CONDUIT     0.257     0  00:30      0.94    0.26    0.94
  236                  CONDUIT     0.305     0  00:28      1.01    0.31    1.00
  237                  CONDUIT     0.327     0  00:26      1.04    0.33    1.00
  238                  CONDUIT     0.364     0  06:00      0.98    0.37    1.00
  239                  CONDUIT     0.567     0  06:00      0.84    0.57    1.00
  240                  CONDUIT     1.009     0  06:00      1.29    1.02    1.00
  241                  CONDUIT     2.036     0  06:00      2.59   37.41    1.00
  1                    CONDUIT     0.009     0  00:48      0.37    0.01    0.07
  2                    CONDUIT     0.013     0  01:02      0.42    0.01    0.08
  3                    CONDUIT     0.015     0  01:06      0.45    0.02    0.09
  4                    CONDUIT     0.016     0  01:10      0.46    0.02    0.09
  5                    CONDUIT     0.017     0  01:13      0.47    0.02    0.09
  6                    CONDUIT     0.017     0  01:16      0.47    0.02    0.10
  7                    CONDUIT     0.019     0  06:00      0.48    0.02    0.15
  8                    CONDUIT     0.021     0  06:00      0.48    0.02    0.24
  9                    CONDUIT     0.020     0  06:00      0.48    0.02    0.34
  10                   CONDUIT     0.017     0  01:13      0.37    0.02    0.44
  11                   CONDUIT     0.013     0  01:02      0.39    0.01    0.09
  12                   CONDUIT     0.022     0  01:15      0.47    0.02    0.11
  13                   CONDUIT     0.027     0  01:19      0.53    0.03    0.12
  14                   CONDUIT     0.030     0  01:22      0.55    0.03    0.12
  15                   CONDUIT     0.032     0  01:25      0.57    0.03    0.12
  16                   CONDUIT     0.033     0  01:28      0.58    0.03    0.16
  17                   CONDUIT     0.036     0  05:13      0.58    0.04    0.24
  18                   CONDUIT     0.035     0  02:13      0.59    0.04    0.34
  19                   CONDUIT     0.035     0  01:24      0.59    0.04    0.44
  20                   CONDUIT     0.035     0  00:44      0.41    0.04    0.54
  21                   CONDUIT     0.015     0  01:06      0.40    0.02    0.10
  22                   CONDUIT     0.027     0  01:19      0.50    0.03    0.12
  23                   CONDUIT     0.036     0  01:23      0.56    0.04    0.14
  24                   CONDUIT     0.042     0  01:26      0.60    0.04    0.14
  25                   CONDUIT     0.046     0  01:29      0.63    0.05    0.17
  26                   CONDUIT     0.049     0  06:00      0.64    0.05    0.25
  27                   CONDUIT     0.050     0  02:24      0.65    0.05    0.34
  28                   CONDUIT     0.051     0  01:31      0.66    0.05    0.44
  29                   CONDUIT     0.051     0  00:59      0.62    0.05    0.54
  30                   CONDUIT     0.039     0  00:27      0.37    0.04    0.64
  31                   CONDUIT     0.016     0  01:10      0.40    0.02    0.10
  32                   CONDUIT     0.030     0  01:22      0.51    0.03    0.13
  33                   CONDUIT     0.042     0  01:26      0.58    0.04    0.15
  34                   CONDUIT     0.050     0  01:28      0.63    0.05    0.18
  35                   CONDUIT     0.057     0  06:00      0.66    0.06    0.25
  36                   CONDUIT     0.061     0  02:29      0.69    0.06    0.34
  37                   CONDUIT     0.064     0  01:36      0.70    0.07    0.44
  38                   CONDUIT     0.066     0  01:04      0.71    0.07    0.54
  39                   CONDUIT     0.067     0  00:42      0.61    0.07    0.64
  40                   CONDUIT     0.042     0  00:32      0.35    0.04    0.74
  41                   CONDUIT     0.017     0  01:13      0.40    0.02    0.11
  42                   CONDUIT     0.032     0  01:25      0.51    0.03    0.14
  43                   CONDUIT     0.046     0  01:29      0.59    0.05    0.18
  44                   CONDUIT     0.057     0  01:30      0.65    0.06    0.25
  45                   CONDUIT     0.065     0  01:33      0.69    0.07    0.34
  46                   CONDUIT     0.072     0  01:39      0.72    0.07    0.44
  47                   CONDUIT     0.077     0  01:06      0.73    0.08    0.54
  48                   CONDUIT     0.080     0  00:46      0.74    0.08    0.64
  49                   CONDUIT     0.078     0  00:31      0.60    0.08    0.74
  50                   CONDUIT     0.046     0  00:30      0.34    0.05    0.84
  51                   CONDUIT     0.017     0  01:16      0.40    0.02    0.11
  52                   CONDUIT     0.033     0  01:28      0.51    0.03    0.16
  53                   CONDUIT     0.048     0  01:31      0.60    0.05    0.25
  54                   CONDUIT     0.061     0  01:33      0.66    0.06    0.34
  55                   CONDUIT     0.073     0  06:00      0.70    0.07    0.44
  56                   CONDUIT     0.081     0  06:00      0.74    0.08    0.54
  57                   CONDUIT     0.087     0  00:47      0.76    0.09    0.64
  58                   CONDUIT     0.092     0  00:36      0.75    0.09    0.74
  59                   CONDUIT     0.080     0  00:28      0.59    0.08    0.84
  60                   CONDUIT     0.046     0  00:24      0.34    0.05    0.94
  61                   CONDUIT     0.017     0  01:19      0.40    0.02    0.15
  62                   CONDUIT     0.034     0  01:31      0.51    0.03    0.24
  63                   CONDUIT     0.050     0  01:33      0.60    0.05    0.34
  64                   CONDUIT     0.068     0  06:00      0.66    0.07    0.44
  65                   CONDUIT     0.090     0  06:00      0.71    0.09    0.54
  66                   CONDUIT     0.108     0  06:00      0.75    0.11    0.64
  67                   CONDUIT     0.116     0  06:00      0.77    0.12    0.73
  68                   CONDUIT     0.109     0  06:00      0.75    0.11    0.83
  69                   CONDUIT     0.085     0  06:00      0.59    0.09    0.93
  70                   CONDUIT     0.055     0  06:00      0.34    0.06    1.00
  71                   CONDUIT     0.017     0  01:22      0.40    0.02    0.24
  72                   CONDUIT     0.034     0  01:33      0.51    0.03    0.34
  73                   CONDUIT     0.056     0  06:00      0.60    0.06    0.44
  74                   CONDUIT     0.083     0  06:00      0.67    0.08    0.54
  75                   CONDUIT     0.113     0  06:00      0.72    0.11    0.64
  76                   CONDUIT     0.144     0  06:00      0.76    0.15    0.73
  77                   CONDUIT     0.168     0  06:00      0.78    0.17    0.83
  78                   CONDUIT     0.177     0  06:00      0.75    0.18    0.93
  79                   CONDUIT     0.161     0  06:00      0.59    0.16    1.00
  80                   CONDUIT     0.095     0  04:16      0.34    0.10    1.00
  81                   CONDUIT     0.017     0  06:00      0.40    0.02    0.34
  82                   CONDUIT     0.040     0  06:00      0.51    0.04    0.44
  83                   CONDUIT     0.068     0  06:00      0.60    0.07    0.54
  84                   CONDUIT     0.100     0  06:00      0.67    0.10    0.64
  85                   CONDUIT     0.136     0  06:00      0.70    0.14    0.74
  86                   CONDUIT     0.178     0  06:00      0.74    0.18    0.83
  87                   CONDUIT     0.219     0  06:00      0.76    0.22    0.93
  88                   CONDUIT     0.252     0  06:00      0.72    0.26    1.00
  89                   CONDUIT     0.260     0  06:00      0.59    0.26    1.00
  90                   CONDUIT     0.185     0  06:00      0.34    0.19    1.00
  91                   CONDUIT     0.023     0  06:00      0.40    0.02    0.44
  92                   CONDUIT     0.051     0  06:00      0.51    0.05    0.54
  93                   CONDUIT     0.082     0  06:00      0.58    0.08    0.64
  94                   CONDUIT     0.115     0  06:00      0.70    0.12    0.74
  95                   CONDUIT     0.150     0  06:00      0.80    0.15    0.84
  96                   CONDUIT     0.194     0  06:00      0.87    0.20    0.93
  97                   CONDUIT     0.241     0  06:00      0.89    0.24    1.00
  98                   CONDUIT     0.325     0  06:00      0.83    0.33    1.00
  99                   CONDUIT     0.417     0  06:00      0.58    0.42    1.00
  100                  CONDUIT     0.426     0  06:00      0.54    0.43    1.00
  
  
  ***************************
  Flow Classification Summary
  ***************************
  
  -------------------------------------------------------------------------------------
                      Adjusted    ---------- Fraction of Time in Flow Class ---------- 
                       /Actual         Up    Down  Sub   Sup   Up    Down  Norm  Inlet 
  Conduit               Length    Dry  Dry   Dry   Crit  Crit  Crit  Crit  Ltd   Ctrl  
  -------------------------------------------------------------------------------------
  121                     1.00   0.00  0.00  0.00  1.00  0.00  0.00  0.00  0.99  0.00
  122                     1.00   0.00  0.00  0.00  1.00  0.00  0.00  0.00  0.99  0.00
  123                     1.00   0.00  0.00  0.00  1.00  0.00  0.00  0.00  0.98  0.00
  124                     1.00   0.00  0.00  0.00  1.00  0.00  0.00  0.00  0.97  0.00
  125                     1.00   0.00  0.00  0.00  1.00  0.00  0.00  0.00  0.97  0.00
  126                     1.00   0.00  0.00  0.00  1.00  0.00  0.00  0.00  0.96  0.00
  127                     1.00   0.00  0.00  0.00  1.00  0.00  0.00  0.00  0.87  0.00
  128                     1.00   0.00  0.00  0.00  1.00  0.00  0.00  0.00  0.47  0.00
  129                     1.00   0.00  0.00  0.00  1.00  0.00  0.00  0.00  0.27  0.00
  130                     1.00   0.00  0.00  0.00  1.00  0.00  0.00  0.00  0.20  0.00
  131                     1.00   0.00  0.00  0.00  1.00  0.00  0.00  0.00  0.99  0.00
  132                     1.00   0.00  0.00  0.00  1.00  0.00  0.00  0.00  0.98  0.00
  133                     1.00   0.00  0.00  0.00  1.00  0.00  0.00  0.00  0.97  0.00
  134                     1.00   0.00  0.00  0.00  1.00  0.00  0.00  0.00  0.97  0.00
  135                     1.00   0.00  0.00  0.00  1.00  0.00  0.00  0.00  0.96  0.00
  136                     1.00   0.00  0.00  0.00  1.00  0.00  0.00  0.00  0.95  0.00
  137                     1.00   0.00  0.00  0.00  1.00  0.00  0.00  0.00  0.53  0.00
  138                     1.00   0.00  0.00  0.00  1.00  0.00  0.00  0.00  0.31  0.00
  139                     1.00   0.00  0.00  0.00  1.00  0.00  0.00  0.00  0.17  0.00
  140                     1.00   0.00  0.00  0.00  1.00  0.00  0.00  0.00  0.12  0.00
  141                     1.00   0.00  0.00  0.00  1.00  0.00  0.00  0.00  0.99  0.00
  142                     1.00   0.00  0.00  0.00  1.00  0.00  0.00  0.00  0.98  0.00
  143                     1.00   0.00  0.00  0.00  1.00  0.00  0.00  0.00  0.97  0.00
  144                     1.00   0.00  0.00  0.00  1.00  0.00  0.00  0.00  0.96  0.00
  145                     1.00   0.00  0.00  0.00  1.00  0.00  0.00  0.00  0.96  0.00
  146                     1.00   0.00  0.00  0.00  1.00  0.00  0.00  0.00  0.57  0.00
  147                     1.00   0.00  0.00  0.00  1.00  0.00  0.00  0.00  0.34  0.00
  148                     1.00   0.00  0.00  0.00  1.00  0.00  0.00  0.00  0.19  0.00
  149                     1.00   0.00  0.00  0.00  1.00  0.00  0.00  0.00  0.13  0.00
  150                     1.00   0.00  0.00  0.00  1.00  0.00  0.00  0.00  0.03  0.00
  151                     1.00   0.00  0.00  0.00  1.00  0.00  0.00  0.00  0.99  0.00
  152                     1.00   0.00  0.00  0.00  1.00  0.00  0.00  0.00  0.98  0.00
  153                     1.00   0.00  0.00  0.00  1.00  0.00  0.00  0.00  0.97  0.00
  154                     1.00   0.00  0.00  0.00  1.00  0.00  0.00  0.00  0.96  0.00
  155                     1.00   0.00  0.00  0.00  1.00  0.00  0.00  0.00  0.59  0.00
  156                     1.00   0.00  0.00  0.00  1.00  0.00  0.00  0.00  0.36  0.00
  157                     1.00   0.00  0.00  0.00  1.00  0.00  0.00  0.00  0.21  0.00
  158                     1.00   0.00  0.00  0.00  1.00  0.00  0.00  0.00  0.11  0.00
  159                     1.00   0.00  0.00  0.00  1.00  0.00  0.00  0.00  0.09  0.00
  160                     1.00   0.00  0.00  0.00  1.00  0.00  0.00  0.00  0.02  0.00
  161                     1.00   0.00  0.00  0.00  1.00  0.00  0.00  0.00  0.99  0.00
  162                     1.00   0.00  0.00  0.00  1.00  0.00  0.00  0.00  0.98  0.00
  163                     1.00   0.00  0.00  0.00  1.00  0.00  0.00  0.00  0.97  0.00
  164                     1.00   0.00  0.00  0.00  1.00  0.00  0.00  0.00  0.60  0.00
  165                     1.00   0.00  0.00  0.00  1.00  0.00  0.00  0.00  0.37  0.00
  166                     1.00   0.00  0.00  0.00  1.00  0.00  0.00  0.00  0.22  0.00
  167                     1.00   0.00  0.00  0.00  1.00  0.00  0.00  0.00  0.13  0.00
  168                     1.00   0.00  0.00  0.00  1.00  0.00  0.00  0.00  0.06  0.00
  169                     1.00   0.00  0.00  0.00  1.00  0.00  0.00  0.00  0.03  0.00
  170                     1.00   0.00  0.00  0.00  1.00  0.00  0.00  0.00  0.02  0.00
  171                     1.00   0.00  0.00  0.00  1.00  0.00  0.00  0.00  0.99  0.00
  172                     1.00   0.00  0.00  0.00  1.00  0.00  0.00  0.00  0.98  0.00
  173                     1.00   0.00  0.00  0.00  1.00  0.00  0.00  0.00  0.58  0.00
  174                     1.00   0.00  0.00  0.00  1.00  0.00  0.00  0.00  0.37  0.00
  175                     1.00   0.00  0.00  0.00  1.00  0.00  0.00  0.00  0.23  0.00
  176                     1.00   0.00  0.00  0.00  1.00  0.00  0.00  0.00  0.13  0.00
  177                     1.00   0.00  0.00  0.00  1.00  0.00  0.00  0.00  0.07  0.00
  178                     1.00   0.00  0.00  0.00  1.00  0.00  0.00  0.00  0.04  0.00
  179                     1.00   0.00  0.00  0.00  1.00  0.00  0.00  0.00  0.02  0.00
  180                     1.00   0.00  0.00  0.00  1.00  0.00  0.00  0.00  0.02  0.00
  181                     1.00   0.00  0.00  0.00  1.00  0.00  0.00  0.00  0.85  0.00
  182                     1.00   0.00  0.00  0.00  1.00  0.00  0.00  0.00  0.54  0.00
  183                     1.00   0.00  0.00  0.00  1.00  0.00  0.00  0.00  0.36  0.00
  184                     1.00   0.00  0.00  0.00  1.00  0.00  0.00  0.00  0.23  0.00
  185                     1.00   0.00  0.00  0.00  1.00  0.00  0.00  0.00  0.14  0.00
  186                     1.00   0.00  0.00  0.00  1.00  0.00  0.00  0.00  0.08  0.00
  187                     1.00   0.00  0.00  0.00  1.00  0.00  0.00  0.00  0.04  0.00
  188                     1.00   0.00  0.00  0.00  1.00  0.00  0.00  0.00  0.03  0.00
  189                     1.00   0.00  0.00  0.00  1.00  0.00  0.00  0.00  0.02  0.00
  190                     1.00   0.00  0.00  0.00  1.00  0.00  0.00  0.00  0.02  0.00
  191                     1.00   0.00  0.00  0.00  1.00  0.00  0.00  0.00  0.50  0.00
  192                     1.00   0.00  0.00  0.00  1.00  0.00  0.00  0.00  0.34  0.00
  193                     1.00   0.00  0.00  0.00  1.00  0.00  0.00  0.00  0.22  0.00
  194                     1.00   0.00  0.00  0.00  1.00  0.00  0.00  0.00  0.14  0.00
  195                     1.00   0.00  0.00  0.00  1.00  0.00  0.00  0.00  0.09  0.00
  196                     1.00   0.00  0.00  0.00  1.00  0.00  0.00  0.00  0.05  0.00
  197                     1.00   0.00  0.00  0.00  1.00  0.00  0.00  0.00  0.02  0.00
  198                     1.00   0.00  0.00  0.00  1.00  0.00  0.00  0.00  0.01  0.00
  199                     1.00   0.00  0.00  0.00  1.00  0.00  0.00  0.00  0.01  0.00
  200                     1.00   0.00  0.00  0.00  1.00  0.00  0.00  0.00  0.02  0.00
  201                     1.00   0.00  0.00  0.00  1.00  0.00  0.00  0.00  0.31  0.00
  202                     1.00   0.00  0.00  0.00  1.00  0.00  0.00  0.00  0.21  0.00
  203                     1.00   0.00  0.00  0.00  1.00  0.00  0.00  0.00  0.14  0.00
  204                     1.00   0.00  0.00  0.00  1.00  0.00  0.00  0.00  0.09  0.00
  205                     1.00   0.00  0.00  0.00  1.00  0.00  0.00  0.00  0.05  0.00
  206                     1.00   0.00  0.00  0.00  1.00  0.00  0.00  0.00  0.03  0.00
  207                     1.00   0.00  0.00  0.00  1.00  0.00  0.00  0.00  0.01  0.00
  208                     1.00   0.00  0.00  0.00  1.00  0.00  0.00  0.00  0.01  0.00
  209                     1.00   0.00  0.00  0.00  1.00  0.00  0.00  0.00  0.01  0.00
  210                     1.00   0.00  0.00  0.00  1.00  0.00  0.00  0.00  0.02  0.00
  211                     1.00   0.00  0.00  0.00  1.00  0.00  0.00  0.00  0.19  0.00
  212                     1.00   0.00  0.00  0.00  1.00  0.00  0.00  0.00  0.13  0.00
  213                     1.00   0.00  0.00  0.00  1.00  0.00  0.00  0.00  0.09  0.00
  214                     1.00   0.00  0.00  0.00  1.00  0.00  0.00  0.00  0.04  0.00
  215                     1.00   0.00  0.00  0.00  1.00  0.00  0.00  0.00  0.01  0.00
  216                     1.00   0.00  0.00  0.00  1.00  0.00  0.00  0.00  0.00  0.00
  217                     1.00   0.00  0.00  0.00  1.00  0.00  0.00  0.00  0.00  0.00
  218                     1.00   0.00  0.00  0.00  1.00  0.00  0.00  0.00  0.00  0.00
  219                     1.00   0.00  0.00  0.00  1.00  0.00  0.00  0.00  0.01  0.00
  220                     1.00   0.00  0.00  0.00  1.00  0.00  0.00  0.00  0.02  0.00
  221                     1.00   0.00  0.00  0.00  1.00  0.00  0.00  0.00  0.11  0.00
  222                     1.00   0.00  0.00  0.00  1.00  0.00  0.00  0.00  0.04  0.00
  223                     1.00   0.00  0.00  0.00  1.00  0.00  0.00  0.00  0.00  0.00
  224                     1.00   0.00  0.00  0.00  1.00  0.00  0.00  0.00  0.00  0.00
  225                     1.00   0.00  0.00  0.00  1.00  0.00  0.00  0.00  0.00  0.00
  226                     1.00   0.00  0.00  0.00  1.00  0.00  0.00  0.00  0.00  0.00
  227                     1.00   0.00  0.00  0.00  1.00  0.00  0.00  0.00  0.00  0.00
  228                     1.00   0.00  0.00  0.00  1.00  0.00  0.00  0.00  0.00  0.00
  229                     1.00   0.00  0.00  0.00  1.00  0.00  0.00  0.00  0.00  0.00
  230                     1.00   0.00  0.00  0.00  1.00  0.00  0.00  0.00  0.02  0.00
  231                     1.00   0.00  0.00  0.00  1.00  0.00  0.00  0.00  0.11  0.00
  232                     1.00   0.00  0.00  0.00  1.00  0.00  0.00  0.00  0.04  0.00
  233                     1.00   0.00  0.00  0.00  1.00  0.00  0.00  0.00  0.00  0.00
  234                     1.00   0.00  0.00  0.00  1.00  0.00  0.00  0.00  0.00  0.00
  235                     1.00   0.00  0.00  0.00  1.00  0.00  0.00  0.00  0.00  0.00
  236                     1.00   0.00  0.00  0.00  1.00  0.00  0.00  0.00  0.00  0.00
  237                     1.00   0.00  0.00  0.00  1.00  0.00  0.00  0.00  0.00  0.00
  238                     1.00   0.00  0.00  0.00  1.00  0.00  0.00  0.00  0.00  0.00
  239                     1.00   0.00  0.00  0.00  1.00  0.00  0.00  0.00  0.00  0.00
  240                     1.00   0.00  0.00  0.00  1.00  0.00  0.00  0.00  0.02  0.00
  241                     1.00   0.00  0.00  0.00  1.00  0.00  0.00  0.00  0.00  0.00
  1                       1.00   0.00  0.00  0.00  1.00  0.00  0.00  0.00  0.99  0.00
  2                       1.00   0.00  0.00  0.00  1.00  0.00  0.00  0.00  0.99  0.00
  3                       1.00   0.00  0.00  0.00  1.00  0.00  0.00  0.00  0.98  0.00
  4                       1.00   0.00  0.00  0.00  1.00  0.00  0.00  0.00  0.97  0.00
  5                       1.00   0.00  0.00  0.00  1.00  0.00  0.00  0.00  0.97  0.00
  6                       1.00   0.00  0.00  0.00  1.00  0.00  0.00  0.00  0.96  0.00
  7                       1.00   0.00  0.00  0.00  1.00  0.00  0.00  0.00  0.87  0.00
  8                       1.00   0.00  0.00  0.00  1.00  0.00  0.00  0.00  0.47  0.00
  9                       1.00   0.00  0.00  0.00  1.00  0.00  0.00  0.00  0.27  0.00
  10                      1.00   0.00  0.00  0.00  1.00  0.00  0.00  0.00  0.20  0.00
  11                      1.00   0.00  0.00  0.00  1.00  0.00  0.00  0.00  0.99  0.00
  12                      1.00   0.00  0.00  0.00  1.00  0.00  0.00  0.00  0.98  0.00
  13                      1.00   0.00  0.00  0.00  1.00  0.00  0.00  0.00  0.97  0.00
  14                      1.00   0.00  0.00  0.00  1.00  0.00  0.00  0.00  0.97  0.00
  15                      1.00   0.00  0.00  0.00  1.00  0.00  0.00  0.00  0.96  0.00
  16                      1.00   0.00  0.00  0.00  1.00  0.00  0.00  0.00  0.95  0.00
  17                      1.00   0.00  0.00  0.00  1.00  0.00  0.00  0.00  0.53  0.00
  18                      1.00   0.00  0.00  0.00  1.00  0.00  0.00  0.00  0.31  0.00
  19                      1.00   0.00  0.00  0.00  1.00  0.00  0.00  0.00  0.17  0.00
  20                      1.00   0.00  0.00  0.00  1.00  0.00  0.00  0.00  0.12  0.00
  21                      1.00   0.00  0.00  0.00  1.00  0.00  0.00  0.00  0.99  0.00
  22                      1.00   0.00  0.00  0.00  1.00  0.00  0.00  0.00  0.98  0.00
  23                      1.00   0.00  0.00  0.00  1.00  0.00  0.00  0.00  0.97  0.00
  24                      1.00   0.00  0.00  0.00  1.00  0.00  0.00  0.00  0.96  0.00
  25                      1.00   0.00  0.00  0.00  1.00  0.00  0.00  0.00  0.96  0.00
  26                      1.00   0.00  0.00  0.00  1.00  0.00  0.00  0.00  0.57  0.00
  27                      1.00   0.00  0.00  0.00  1.00  0.00  0.00  0.00  0.34  0.00
  28                      1.00   0.00  0.00  0.00  1.00  0.00  0.00  0.00  0.19  0.00
  29                      1.00   0.00  0.00  0.00  1.00  0.00  0.00  0.00  0.13  0.00
  30                      1.00   0.00  0.00  0.00  1.00  0.00  0.00  0.00  0.03  0.00
  31                      1.00   0.00  0.00  0.00  1.00  0.00  0.00  0.00  0.99  0.00
  32                      1.00   0.00  0.00  0.00  1.00  0.00  0.00  0.00  0.98  0.00
  33                      1.00   0.00  0.00  0.00  1.00  0.00  0.00  0.00  0.97  0.00
  34                      1.00   0.00  0.00  0.00  1.00  0.00  0.00  0.00  0.96  0.00
  35                      1.00   0.00  0.00  0.00  1.00  0.00  0.00  0.00  0.59  0.00
  36                      1.00   0.00  0.00  0.00  1.00  0.00  0.00  0.00  0.36  0.00
  37                      1.00   0.00  0.00  0.00  1.00  0.00  0.00  0.00  0.21  0.00
  38                      1.00   0.00  0.00  0.00  1.00  0.00  0.00  0.00  0.11  0.00
  39                      1.00   0.00  0.00  0.00  1.00  0.00  0.00  0.00  0.09  0.00
  40                      1.00   0.00  0.00  0.00  1.00  0.00  0.00  0.00  0.02  0.00
  41                      1.00   0.00  0.00  0.00  1.00  0.00  0.00  0.00  0.99  0.00
  42                      1.00   0.00  0.00  0.00  1.00  0.00  0.00  0.00  0.98  0.00
  43                      1.00   0.00  0.00  0.00  1.00  0.00  0.00  0.00  0.97  0.00
  44                      1.00   0.00  0.00  0.00  1.00  0.00  0.00  0.00  0.60  0.00
  45                      1.00   0.00  0.00  0.00  1.00  0.00  0.00  0.00  0.37  0.00
  46                      1.00   0.00  0.00  0.00  1.00  0.00  0.00  0.00  0.22  0.00
  47                      1.00   0.00  0.00  0.00  1.00  0.00  0.00  0.00  0.13  0.00
  48                      1.00   0.00  0.00  0.00  1.00  0.00  0.00  0.00  0.06  0.00
  49                      1.00   0.00  0.00  0.00  1.00  0.00  0.00  0.00  0.03  0.00
  50                      1.00   0.00  0.00  0.00  1.00  0.00  0.00  0.00  0.02  0.00
  51                      1.00   0.00  0.00  0.00  1.00  0.00  0.00  0.00  0.99  0.00
  52                      1.00   0.00  0.00  0.00  1.00  0.00  0.00  0.00  0.98  0.00
  53                      1.00   0.00  0.00  0.00  1.00  0.00  0.00  0.00  0.58  0.00
  54                      1.00   0.00  0.00  0.00  1.00  0.00  0.00  0.00  0.37  0.00
  55                      1.00   0.00  0.00  0.00  1.00  0.00  0.00  0.00  0.23  0.00
  56                      1.00   0.00  0.00  0.00  1.00  0.00  0.00  0.00  0.13  0.00
  57                      1.00   0.00  0.00  0.00  1.00  0.00  0.00  0.00  0.07  0.00
  58                      1.00   0.00  0.00  0.00  1.00  0.00  0.00  0.00  0.04  0.00
  59                      1.00   0.00  0.00  0.00  1.00  0.00  0.00  0.00  0.02  0.00
  60                      1.00   0.00  0.00  0.00  1.00  0.00  0.00  0.00  0.02  0.00
  61                      1.00   0.00  0.00  0.00  1.00  0.00  0.00  0.00  0.85  0.00
  62                      1.00   0.00  0.00  0.00  1.00  0.00  0.00  0.00  0.54  0.00
  63                      1.00   0.00  0.00  0.00  1.00  0.00  0.00  0.00  0.36  0.00
  64                      1.00   0.00  0.00  0.00  1.00  0.00  0.00  0.00  0.23  0.00
  65                      1.00   0.00  0.00  0.00  1.00  0.00  0.00  0.00  0.14  0.00
  66                      1.00   0.00  0.00  0.00  1.00  0.00  0.00  0.00  0.08  0.00
  67                      1.00   0.00  0.00  0.00  1.00  0.00  0.00  0.00  0.04  0.00
  68                      1.00   0.00  0.00  0.00  1.00  0.00  0.00  0.00  0.03  0.00
  69                      1.00   0.00  0.00  0.00  1.00  0.00  0.00  0.00  0.02  0.00
  70                      1.00   0.00  0.00  0.00  1.00  0.00  0.00  0.00  0.02  0.00
  71                      1.00   0.00  0.00  0.00  1.00  0.00  0.00  0.00  0.50  0.00
  72                      1.00   0.00  0.00  0.00  1.00  0.00  0.00  0.00  0.34  0.00
  73                      1.00   0.00  0.00  0.00  1.00  0.00  0.00  0.00  0.22  0.00
  74                      1.00   0.00  0.00  0.00  1.00  0.00  0.00  0.00  0.14  0.00
  75                      1.00   0.00  0.00  0.00  1.00  0.00  0.00  0.00  0.09  0.00
  76                      1.00   0.00  0.00  0.00  1.00  0.00  0.00  0.00  0.05  0.00
  77                      1.00   0.00  0.00  0.00  1.00  0.00  0.00  0.00  0.02  0.00
  78                      1.00   0.00  0.00  0.00  1.00  0.00  0.00  0.00  0.01  0.00
  79                      1.00   0.00  0.00  0.00  1.00  0.00  0.00  0.00  0.01  0.00
  80                      1.00   0.00  0.00  0.00  1.00  0.00  0.00  0.00  0.02  0.00
  81                      1.00   0.00  0.00  0.00  1.00  0.00  0.00  0.00  0.31  0.00
  82                      1.00   0.00  0.00  0.00  1.00  0.00  0.00  0.00  0.21  0.00
  83                      1.00   0.00  0.00  0.00  1.00  0.00  0.00  0.00  0.14  0.00
  84                      1.00   0.00  0.00  0.00  1.00  0.00  0.00  0.00  0.09  0.00
  85                      1.00   0.00  0.00  0.00  1.00  0.00  0.00  0.00  0.05  0.00
  86                      1.00   0.00  0.00  0.00  1.00  0.00  0.00  0.00  0.03  0.00
  87                      1.00   0.00  0.00  0.00  1.00  0.00  0.00  0.00  0.01  0.00
  88                      1.00   0.00  0.00  0.00  1.00  0.00  0.00  0.00  0.01  0.00
  89                      1.00   0.00  0.00  0.00  1.00  0.00  0.00  0.00  0.01  0.00
  90                      1.00   0.00  0.00  0.00  1.00  0.00  0.00  0.00  0.02  0.00
  91                      1.00   0.00  0.00  0.00  1.00  0.00  0.00  0.00  0.19  0.00
  92                      1.00   0.00  0.00  0.00  1.00  0.00  0.00  0.00  0.13  0.00
  93                      1.00   0.00  0.00  0.00  1.00  0.00  0.00  0.00  0.09  0.00
  94                      1.00   0.00  0.00  0.00  1.00  0.00  0.00  0.00  0.04  0.00
  95                      1.00   0.00  0.00  0.00  1.00  0.00  0.00  0.00  0.01  0.00
  96                      1.00   0.00  0.00  0.00  1.00  0.00  0.00  0.00  0.00  0.00
  97                      1.00   0.00  0.00  0.00  1.00  0.00  0.00  0.00  0.00  0.00
  98                      1.00   0.00  0.00  0.00  1.00  0.00  0.00  0.00  0.00  0.00
  99                      1.00   0.00  0.00  0.00  1.00  0.00  0.00  0.00  0.01  0.00
  100                     1.00   0.00  0.00  0.00  1.00  0.00  0.00  0.00  0.02  0.00
  
  
  *************************
  Conduit Surcharge Summary
  *************************
  
  ----------------------------------------------------------------------------
                                                           Hours        Hours 
                         --------- Hours Full --------   Above Full   Capacity
  Conduit                Both Ends  Upstream  Dnstream   Normal Flow   Limited
  ----------------------------------------------------------------------------
  190                         0.01      0.01      2.42      0.01         0.01
  199                         0.01      0.01      2.34      0.01         0.01
  200                         2.34      2.34      3.66      0.01         0.01
  208                         0.01      0.01      2.29      0.01         0.01
  209                         2.29      2.29      3.59      0.01         0.01
  210                         3.59      3.59      4.46      0.01         0.01
  217                         0.01      0.01      2.34      0.01         0.01
  218                         2.34      2.34      3.59      0.01         0.01
  219                         3.59      3.59      4.40      0.01         0.01
  220                         4.40      4.40      4.91      0.01         0.01
  226                         0.01      0.01      2.42      0.01         0.01
  227                         2.42      2.42      3.66      0.01         0.01
  228                         3.66      3.66      4.46      0.01         0.01
  229                         4.46      4.46      4.91      0.01         0.01
  230                         4.91      4.91      5.13      1.22         0.01
  236                         0.01      0.01      2.42      0.01         0.01
  237                         2.42      2.42      3.66      0.01         0.01
  238                         3.66      3.66      4.46      0.01         0.01
  239                         4.46      4.46      4.91      0.01         0.01
  240                         4.91      4.91      5.13      1.22         0.01
  241                         0.01      5.13      0.01      5.87         3.25
  70                          0.01      0.01      2.42      0.01         0.01
  79                          0.01      0.01      2.34      0.01         0.01
  80                          2.34      2.34      3.66      0.01         0.01
  88                          0.01      0.01      2.29      0.01         0.01
  89                          2.29      2.29      3.59      0.01         0.01
  90                          3.59      3.59      4.46      0.01         0.01
  97                          0.01      0.01      2.34      0.01         0.01
  98                          2.34      2.34      3.59      0.01         0.01
  99                          3.59      3.59      4.40      0.01         0.01
  100                         4.40      4.40      4.91      0.01         0.01
  

  Analysis begun on:  Mon Nov 28 18:08:31 2022
  Analysis ended on:  Mon Nov 28 18:08:33 2022
  Total elapsed time: 00:00:02