
  EPA STORM WATER MANAGEMENT MODEL - VERSION 5.1 (Build 5.1.015)
  --------------------------------------------------------------

  WARNING 04: minimum elevation drop used for Conduit 241
  
  *********************************************************
  NOTE: The summary statistics displayed in this report are
  based on results found at every computational time step,  
  not just on results from each reporting time step.
  *********************************************************
  
  ****************
  Analysis Options
  ****************
  Flow Units ............... CMS
  Process Models:
    Rainfall/Runoff ........ NO
    RDII ................... NO
    Snowmelt ............... NO
    Groundwater ............ NO
    Flow Routing ........... YES
    Ponding Allowed ........ NO
    Water Quality .......... NO
  Flow Routing Method ...... DYNWAVE
  Surcharge Method ......... SLOT
  Starting Date ............ 10/31/2022 00:00:00
  Ending Date .............. 10/31/2022 06:00:00
  Antecedent Dry Days ...... 0.0
  Report Time Step ......... 00:00:10
  Routing Time Step ........ 1.00 sec
  Variable Time Step ....... NO
  Maximum Trials ........... 8
  Number of Threads ........ 6
  Head Tolerance ........... 0.001500 m
  
  
  **************************        Volume        Volume
  Flow Routing Continuity        hectare-m      10^6 ltr
  **************************     ---------     ---------
  Dry Weather Inflow .......         0.000         0.000
  Wet Weather Inflow .......         0.000         0.000
  Groundwater Inflow .......         0.000         0.000
  RDII Inflow ..............         0.000         0.000
  External Inflow ..........         4.541        45.406
  External Outflow .........         4.411        44.107
  Flooding Loss ............         0.000         0.000
  Evaporation Loss .........         0.000         0.000
  Exfiltration Loss ........         0.000         0.000
  Initial Stored Volume ....         0.000         0.000
  Final Stored Volume ......         0.133         1.333
  Continuity Error (%) .....        -0.074
  
  
  ********************************
  Highest Flow Instability Indexes
  ********************************
  All links are stable.
  
  
  *************************
  Routing Time Step Summary
  *************************
  Minimum Time Step           :     1.00 sec
  Average Time Step           :     1.00 sec
  Maximum Time Step           :     1.00 sec
  Percent in Steady State     :     0.00
  Average Iterations per Step :     2.00
  Percent Not Converging      :     0.00
  
  
  ******************
  Node Depth Summary
  ******************
  
  ---------------------------------------------------------------------------------
                                 Average  Maximum  Maximum  Time of Max    Reported
                                   Depth    Depth      HGL   Occurrence   Max Depth
  Node                 Type       Meters   Meters   Meters  days hr:min      Meters
  ---------------------------------------------------------------------------------
  A00                  JUNCTION     0.04     0.04    20.04     0  00:24        0.04
  A01                  JUNCTION     0.05     0.05    19.05     0  00:28        0.05
  A02                  JUNCTION     0.05     0.05    18.05     0  00:30        0.05
  A03                  JUNCTION     0.05     0.05    17.05     0  00:31        0.05
  A04                  JUNCTION     0.05     0.05    16.05     0  00:33        0.05
  A05                  JUNCTION     0.05     0.05    15.05     0  00:34        0.05
  A06                  JUNCTION     0.05     0.05    14.05     0  00:36        0.05
  A07                  JUNCTION     0.05     0.05    13.05     0  00:36        0.05
  A08                  JUNCTION     0.05     0.05    12.05     0  00:43        0.05
  A09                  JUNCTION     0.05     0.05    11.05     0  00:39        0.05
  A10                  JUNCTION     0.07     0.07    10.07     0  00:44        0.07
  B00                  JUNCTION     0.05     0.05    19.05     0  00:28        0.05
  B01                  JUNCTION     0.06     0.06    18.06     0  00:38        0.06
  B02                  JUNCTION     0.07     0.07    17.07     0  00:38        0.07
  B03                  JUNCTION     0.07     0.07    16.07     0  00:39        0.07
  B04                  JUNCTION     0.07     0.07    15.07     0  00:39        0.07
  B05                  JUNCTION     0.07     0.07    14.07     0  00:43        0.07
  B06                  JUNCTION     0.07     0.07    13.07     0  00:43        0.07
  B07                  JUNCTION     0.07     0.07    12.07     0  00:43        0.07
  B08                  JUNCTION     0.07     0.07    11.07     0  00:45        0.07
  B09                  JUNCTION     0.07     0.07    10.07     0  00:46        0.07
  B10                  JUNCTION     0.11     0.11     9.11     0  00:46        0.11
  C00                  JUNCTION     0.05     0.05    18.05     0  00:30        0.05
  C01                  JUNCTION     0.07     0.07    17.07     0  00:38        0.07
  C02                  JUNCTION     0.07     0.08    16.08     0  00:46        0.08
  C03                  JUNCTION     0.08     0.08    15.08     0  00:39        0.08
  C04                  JUNCTION     0.08     0.08    14.08     0  00:40        0.08
  C05                  JUNCTION     0.09     0.09    13.09     0  00:41        0.09
  C06                  JUNCTION     0.09     0.09    12.09     0  00:42        0.09
  C07                  JUNCTION     0.09     0.09    11.09     0  00:44        0.09
  C08                  JUNCTION     0.09     0.09    10.09     0  00:47        0.09
  C09                  JUNCTION     0.09     0.09     9.09     0  00:49        0.09
  C10                  JUNCTION     0.15     0.15     8.15     0  00:50        0.15
  D00                  JUNCTION     0.05     0.05    17.05     0  00:31        0.05
  D01                  JUNCTION     0.07     0.07    16.07     0  00:39        0.07
  D02                  JUNCTION     0.08     0.08    15.08     0  00:39        0.08
  D03                  JUNCTION     0.09     0.09    14.09     0  00:44        0.09
  D04                  JUNCTION     0.09     0.09    13.09     0  00:44        0.09
  D05                  JUNCTION     0.10     0.10    12.10     0  00:48        0.10
  D06                  JUNCTION     0.10     0.10    11.10     0  00:44        0.10
  D07                  JUNCTION     0.10     0.10    10.10     0  00:48        0.10
  D08                  JUNCTION     0.10     0.10     9.10     0  00:48        0.10
  D09                  JUNCTION     0.10     0.10     8.10     0  00:49        0.10
  D10                  JUNCTION     0.19     0.19     7.19     0  00:51        0.19
  E00                  JUNCTION     0.05     0.05    16.05     0  00:33        0.05
  E01                  JUNCTION     0.07     0.07    15.07     0  00:39        0.07
  E02                  JUNCTION     0.08     0.08    14.08     0  00:40        0.08
  E03                  JUNCTION     0.09     0.09    13.09     0  00:44        0.09
  E04                  JUNCTION     0.10     0.10    12.10     0  00:48        0.10
  E05                  JUNCTION     0.10     0.10    11.10     0  00:53        0.10
  E06                  JUNCTION     0.11     0.11    10.11     0  00:53        0.11
  E07                  JUNCTION     0.11     0.11     9.11     0  00:51        0.11
  E08                  JUNCTION     0.11     0.11     8.11     0  00:47        0.11
  E09                  JUNCTION     0.11     0.11     7.11     0  00:49        0.11
  E10                  JUNCTION     0.22     0.22     6.22     0  00:52        0.22
  F00                  JUNCTION     0.05     0.05    15.05     0  00:34        0.05
  F01                  JUNCTION     0.07     0.07    14.07     0  00:43        0.07
  F02                  JUNCTION     0.09     0.09    13.09     0  00:41        0.09
  F03                  JUNCTION     0.10     0.10    12.10     0  00:48        0.10
  F04                  JUNCTION     0.10     0.10    11.10     0  00:53        0.10
  F05                  JUNCTION     0.11     0.11    10.11     0  00:48        0.11
  F06                  JUNCTION     0.11     0.12     9.12     0  00:47        0.12
  F07                  JUNCTION     0.12     0.12     8.12     0  00:49        0.12
  F08                  JUNCTION     0.12     0.12     7.12     0  00:48        0.12
  F09                  JUNCTION     0.12     0.12     6.12     0  00:50        0.12
  F10                  JUNCTION     0.26     0.26     5.26     0  00:54        0.26
  G00                  JUNCTION     0.05     0.05    14.05     0  00:36        0.05
  G01                  JUNCTION     0.07     0.07    13.07     0  00:43        0.07
  G02                  JUNCTION     0.09     0.09    12.09     0  00:42        0.09
  G03                  JUNCTION     0.10     0.10    11.10     0  00:44        0.10
  G04                  JUNCTION     0.11     0.11    10.11     0  00:53        0.11
  G05                  JUNCTION     0.11     0.12     9.12     0  00:47        0.12
  G06                  JUNCTION     0.12     0.12     8.12     0  00:49        0.12
  G07                  JUNCTION     0.12     0.12     7.12     0  00:50        0.12
  G08                  JUNCTION     0.13     0.13     6.13     0  00:49        0.13
  G09                  JUNCTION     0.13     0.13     5.13     0  00:55        0.13
  G10                  JUNCTION     0.29     0.29     4.29     0  00:54        0.29
  H00                  JUNCTION     0.05     0.05    13.05     0  00:36        0.05
  H01                  JUNCTION     0.07     0.07    12.07     0  00:42        0.07
  H02                  JUNCTION     0.09     0.09    11.09     0  00:44        0.09
  H03                  JUNCTION     0.10     0.10    10.10     0  00:48        0.10
  H04                  JUNCTION     0.11     0.11     9.11     0  00:51        0.11
  H05                  JUNCTION     0.12     0.12     8.12     0  00:49        0.12
  H06                  JUNCTION     0.12     0.12     7.12     0  00:51        0.12
  H07                  JUNCTION     0.13     0.13     6.13     0  00:50        0.13
  H08                  JUNCTION     0.13     0.13     5.13     0  00:49        0.13
  H09                  JUNCTION     0.13     0.14     4.14     0  00:57        0.14
  H10                  JUNCTION     0.32     0.33     3.33     0  00:54        0.33
  I00                  JUNCTION     0.05     0.05    12.05     0  00:43        0.05
  I01                  JUNCTION     0.07     0.07    11.07     0  00:45        0.07
  I02                  JUNCTION     0.09     0.09    10.09     0  00:47        0.09
  I03                  JUNCTION     0.10     0.10     9.10     0  00:49        0.10
  I04                  JUNCTION     0.11     0.11     8.11     0  00:47        0.11
  I05                  JUNCTION     0.12     0.12     7.12     0  00:48        0.12
  I06                  JUNCTION     0.13     0.13     6.13     0  00:49        0.13
  I07                  JUNCTION     0.13     0.13     5.13     0  00:49        0.13
  I08                  JUNCTION     0.14     0.14     4.14     0  00:50        0.14
  I09                  JUNCTION     0.14     0.14     3.14     0  00:57        0.14
  I10                  JUNCTION     0.36     0.36     2.36     0  00:54        0.36
  J00                  JUNCTION     0.05     0.05    11.05     0  00:39        0.05
  J01                  JUNCTION     0.07     0.07    10.07     0  00:46        0.07
  J02                  JUNCTION     0.09     0.09     9.09     0  00:49        0.09
  J03                  JUNCTION     0.10     0.10     8.10     0  00:49        0.10
  J04                  JUNCTION     0.11     0.11     7.11     0  00:49        0.11
  J05                  JUNCTION     0.12     0.12     6.12     0  00:50        0.12
  J06                  JUNCTION     0.13     0.13     5.13     0  00:55        0.13
  J07                  JUNCTION     0.13     0.14     4.14     0  00:57        0.14
  J08                  JUNCTION     0.14     0.14     3.14     0  00:57        0.14
  J09                  JUNCTION     0.14     0.15     2.15     0  00:58        0.15
  J10                  JUNCTION     0.39     0.40     1.40     0  00:58        0.40
  K00                  JUNCTION     0.07     0.07    10.07     0  00:44        0.07
  K01                  JUNCTION     0.11     0.11     9.11     0  00:46        0.11
  K02                  JUNCTION     0.15     0.15     8.15     0  00:51        0.15
  K03                  JUNCTION     0.19     0.19     7.19     0  00:53        0.19
  K04                  JUNCTION     0.22     0.22     6.22     0  00:53        0.22
  K05                  JUNCTION     0.26     0.26     5.26     0  00:54        0.26
  K06                  JUNCTION     0.29     0.29     4.29     0  00:55        0.29
  K07                  JUNCTION     0.32     0.33     3.33     0  00:55        0.33
  K08                  JUNCTION     0.36     0.36     2.36     0  00:57        0.36
  K09                  JUNCTION     0.39     0.40     1.40     0  00:57        0.40
  K10                  JUNCTION     1.33     1.37     1.37     0  00:58        1.37
  Outfall              OUTFALL      0.81     0.83     0.83     0  00:58        0.83
  
  
  *******************
  Node Inflow Summary
  *******************
  
  -------------------------------------------------------------------------------------------------
                                  Maximum  Maximum                  Lateral       Total        Flow
                                  Lateral    Total  Time of Max      Inflow      Inflow     Balance
                                   Inflow   Inflow   Occurrence      Volume      Volume       Error
  Node                 Type           CMS      CMS  days hr:min    10^6 ltr    10^6 ltr     Percent
  -------------------------------------------------------------------------------------------------
  A00                  JUNCTION     0.017    0.017     0  00:00       0.375       0.375       0.245
  A01                  JUNCTION     0.017    0.026     0  00:24       0.375       0.562       0.335
  A02                  JUNCTION     0.017    0.030     0  00:28       0.375       0.656       0.321
  A03                  JUNCTION     0.017    0.033     0  00:30       0.375       0.702       0.315
  A04                  JUNCTION     0.017    0.034     0  00:31       0.375       0.725       0.313
  A05                  JUNCTION     0.017    0.034     0  00:33       0.375       0.737       0.312
  A06                  JUNCTION     0.017    0.034     0  00:34       0.375       0.742       0.311
  A07                  JUNCTION     0.017    0.035     0  00:36       0.375       0.745       0.311
  A08                  JUNCTION     0.017    0.035     0  00:36       0.375       0.747       0.311
  A09                  JUNCTION     0.017    0.035     0  00:43       0.375       0.747       0.316
  A10                  JUNCTION     0.017    0.035     0  00:39       0.375       0.748       0.337
  B00                  JUNCTION     0.017    0.026     0  00:24       0.375       0.562       0.335
  B01                  JUNCTION     0.017    0.043     0  00:28       0.375       0.936       0.393
  B02                  JUNCTION     0.017    0.054     0  00:38       0.375        1.17       0.368
  B03                  JUNCTION     0.017    0.061     0  00:38       0.375        1.31       0.357
  B04                  JUNCTION     0.017    0.065     0  00:39       0.375        1.39       0.351
  B05                  JUNCTION     0.017    0.067     0  00:39       0.375        1.43       0.348
  B06                  JUNCTION     0.017    0.068     0  00:43       0.375        1.46       0.346
  B07                  JUNCTION     0.017    0.069     0  00:41       0.375        1.47       0.345
  B08                  JUNCTION     0.017    0.069     0  00:43       0.375        1.48       0.345
  B09                  JUNCTION     0.017    0.069     0  00:45       0.375        1.49       0.349
  B10                  JUNCTION     0.017    0.087     0  00:46       0.375        1.86       0.392
  C00                  JUNCTION     0.017    0.030     0  00:28       0.375       0.656       0.321
  C01                  JUNCTION     0.017    0.054     0  00:38       0.375        1.17       0.368
  C02                  JUNCTION     0.017    0.072     0  00:38       0.375        1.54       0.341
  C03                  JUNCTION     0.017    0.084     0  00:46       0.375        1.79       0.327
  C04                  JUNCTION     0.017    0.091     0  00:39       0.375        1.96       0.319
  C05                  JUNCTION     0.017    0.097     0  00:43       0.375        2.07       0.314
  C06                  JUNCTION     0.017    0.100     0  00:41       0.375        2.13       0.311
  C07                  JUNCTION     0.017    0.102     0  00:42       0.375        2.17       0.309
  C08                  JUNCTION     0.017    0.103     0  00:45       0.375         2.2       0.308
  C09                  JUNCTION     0.017    0.103     0  00:47       0.375        2.21       0.313
  C10                  JUNCTION     0.017    0.156     0  00:49       0.375        3.33       0.331
  D00                  JUNCTION     0.017    0.033     0  00:30       0.375       0.702       0.315
  D01                  JUNCTION     0.017    0.061     0  00:38       0.375        1.31       0.357
  D02                  JUNCTION     0.017    0.084     0  00:46       0.375        1.79       0.327
  D03                  JUNCTION     0.017    0.101     0  00:39       0.375        2.16       0.310
  D04                  JUNCTION     0.017    0.114     0  00:44       0.375        2.43       0.300
  D05                  JUNCTION     0.017    0.122     0  00:44       0.375        2.62       0.294
  D06                  JUNCTION     0.017    0.128     0  00:48       0.375        2.74       0.290
  D07                  JUNCTION     0.017    0.132     0  00:44       0.375        2.83       0.288
  D08                  JUNCTION     0.017    0.135     0  00:48       0.375        2.88       0.286
  D09                  JUNCTION     0.017    0.136     0  00:49       0.375        2.91       0.290
  D10                  JUNCTION     0.017    0.241     0  00:51       0.375        5.15       0.293
  E00                  JUNCTION     0.017    0.034     0  00:31       0.375       0.725       0.313
  E01                  JUNCTION     0.017    0.065     0  00:39       0.375        1.39       0.351
  E02                  JUNCTION     0.017    0.091     0  00:39       0.375        1.96       0.319
  E03                  JUNCTION     0.017    0.114     0  00:44       0.375        2.43       0.300
  E04                  JUNCTION     0.017    0.131     0  00:44       0.375         2.8       0.289
  E05                  JUNCTION     0.017    0.144     0  00:48       0.375        3.08       0.281
  E06                  JUNCTION     0.017    0.154     0  00:53       0.375        3.28       0.276
  E07                  JUNCTION     0.017    0.160     0  00:48       0.375        3.42       0.272
  E08                  JUNCTION     0.017    0.165     0  00:51       0.375        3.51       0.270
  E09                  JUNCTION     0.017    0.168     0  00:49       0.375        3.58       0.274
  E10                  JUNCTION     0.017    0.343     0  00:51       0.375        7.29       0.265
  F00                  JUNCTION     0.017    0.034     0  00:33       0.375       0.737       0.312
  F01                  JUNCTION     0.017    0.067     0  00:39       0.375        1.43       0.348
  F02                  JUNCTION     0.017    0.097     0  00:43       0.375        2.07       0.314
  F03                  JUNCTION     0.017    0.122     0  00:44       0.375        2.62       0.294
  F04                  JUNCTION     0.017    0.144     0  00:48       0.375        3.08       0.281
  F05                  JUNCTION     0.017    0.161     0  00:53       0.375        3.44       0.272
  F06                  JUNCTION     0.017    0.175     0  00:45       0.375        3.73       0.266
  F07                  JUNCTION     0.017    0.185     0  00:51       0.375        3.94       0.262
  F08                  JUNCTION     0.017    0.192     0  00:49       0.375        4.09       0.259
  F09                  JUNCTION     0.017    0.198     0  00:49       0.375         4.2       0.263
  F10                  JUNCTION     0.017    0.459     0  00:52       0.375        9.74       0.244
  G00                  JUNCTION     0.017    0.034     0  00:34       0.375       0.742       0.311
  G01                  JUNCTION     0.017    0.068     0  00:43       0.375        1.46       0.346
  G02                  JUNCTION     0.017    0.100     0  00:41       0.375        2.13       0.311
  G03                  JUNCTION     0.017    0.128     0  00:48       0.375        2.74       0.290
  G04                  JUNCTION     0.017    0.154     0  00:53       0.375        3.28       0.276
  G05                  JUNCTION     0.017    0.175     0  00:48       0.375        3.73       0.266
  G06                  JUNCTION     0.017    0.192     0  00:48       0.375        4.09       0.259
  G07                  JUNCTION     0.017    0.206     0  00:49       0.375        4.38       0.254
  G08                  JUNCTION     0.017    0.217     0  00:49       0.375         4.6       0.251
  G09                  JUNCTION     0.017    0.224     0  00:50       0.375        4.76       0.254
  G10                  JUNCTION     0.017    0.589     0  00:55       0.375        12.5       0.228
  H00                  JUNCTION     0.017    0.035     0  00:36       0.375       0.745       0.311
  H01                  JUNCTION     0.017    0.069     0  00:41       0.375        1.47       0.345
  H02                  JUNCTION     0.017    0.102     0  00:42       0.375        2.17       0.309
  H03                  JUNCTION     0.017    0.132     0  00:44       0.375        2.83       0.288
  H04                  JUNCTION     0.017    0.160     0  00:48       0.375        3.42       0.272
  H05                  JUNCTION     0.017    0.185     0  00:51       0.375        3.94       0.262
  H06                  JUNCTION     0.017    0.206     0  00:51       0.375        4.38       0.254
  H07                  JUNCTION     0.017    0.223     0  00:49       0.375        4.74       0.249
  H08                  JUNCTION     0.017    0.237     0  00:50       0.375        5.03       0.245
  H09                  JUNCTION     0.017    0.248     0  00:55       0.375        5.26       0.247
  H10                  JUNCTION     0.017    0.730     0  00:57       0.375        15.4       0.215
  I00                  JUNCTION     0.017    0.035     0  00:36       0.375       0.747       0.311
  I01                  JUNCTION     0.017    0.069     0  00:43       0.375        1.48       0.345
  I02                  JUNCTION     0.017    0.103     0  00:45       0.375         2.2       0.308
  I03                  JUNCTION     0.017    0.135     0  00:48       0.375        2.88       0.286
  I04                  JUNCTION     0.017    0.165     0  00:51       0.375        3.51       0.270
  I05                  JUNCTION     0.017    0.192     0  00:49       0.375        4.09       0.259
  I06                  JUNCTION     0.017    0.217     0  00:49       0.375         4.6       0.251
  I07                  JUNCTION     0.017    0.237     0  00:50       0.375        5.03       0.245
  I08                  JUNCTION     0.017    0.255     0  00:49       0.375         5.4       0.240
  I09                  JUNCTION     0.017    0.269     0  00:57       0.375        5.69       0.242
  I10                  JUNCTION     0.017    0.882     0  00:57       0.375        18.6       0.204
  J00                  JUNCTION     0.017    0.035     0  00:43       0.375       0.747       0.316
  J01                  JUNCTION     0.017    0.069     0  00:45       0.375        1.49       0.349
  J02                  JUNCTION     0.017    0.103     0  00:47       0.375        2.21       0.313
  J03                  JUNCTION     0.017    0.136     0  00:49       0.375        2.91       0.290
  J04                  JUNCTION     0.017    0.168     0  00:49       0.375        3.58       0.274
  J05                  JUNCTION     0.017    0.198     0  00:49       0.375         4.2       0.263
  J06                  JUNCTION     0.017    0.224     0  00:50       0.375        4.76       0.254
  J07                  JUNCTION     0.017    0.248     0  00:55       0.375        5.26       0.247
  J08                  JUNCTION     0.017    0.269     0  00:57       0.375        5.69       0.242
  J09                  JUNCTION     0.017    0.286     0  00:57       0.375        6.05       0.244
  J10                  JUNCTION     0.017    1.042     0  00:58       0.375          22       0.198
  K00                  JUNCTION     0.017    0.035     0  00:39       0.375       0.748       0.337
  K01                  JUNCTION     0.017    0.087     0  00:46       0.375        1.86       0.392
  K02                  JUNCTION     0.017    0.156     0  00:49       0.375        3.33       0.331
  K03                  JUNCTION     0.017    0.241     0  00:51       0.375        5.15       0.293
  K04                  JUNCTION     0.017    0.343     0  00:53       0.375        7.29       0.265
  K05                  JUNCTION     0.017    0.459     0  00:53       0.375        9.74       0.244
  K06                  JUNCTION     0.017    0.589     0  00:55       0.375        12.5       0.228
  K07                  JUNCTION     0.017    0.730     0  00:57       0.375        15.4       0.215
  K08                  JUNCTION     0.017    0.882     0  00:57       0.375        18.6       0.204
  K09                  JUNCTION     0.017    1.042     0  00:58       0.375          22       0.198
  K10                  JUNCTION     0.017    2.102     0  00:58       0.375        44.3       0.327
  Outfall              OUTFALL      0.000    2.102     0  00:58           0        44.1       0.000
  
  
  **********************
  Node Surcharge Summary
  **********************
  
  Surcharging occurs when water rises above the top of the highest conduit.
  ---------------------------------------------------------------------
                                               Max. Height   Min. Depth
                                   Hours       Above Crown    Below Rim
  Node                 Type      Surcharged         Meters       Meters
  ---------------------------------------------------------------------
  K10                  JUNCTION        5.81          0.366        8.634
  
  
  *********************
  Node Flooding Summary
  *********************
  
  No nodes were flooded.
  
  
  ***********************
  Outfall Loading Summary
  ***********************
  
  -----------------------------------------------------------
                         Flow       Avg       Max       Total
                         Freq      Flow      Flow      Volume
  Outfall Node           Pcnt       CMS       CMS    10^6 ltr
  -----------------------------------------------------------
  Outfall               99.91     2.044     2.102      44.107
  -----------------------------------------------------------
  System                99.91     2.044     2.102      44.107
  
  
  ********************
  Link Flow Summary
  ********************
  
  -----------------------------------------------------------------------------
                                 Maximum  Time of Max   Maximum    Max/    Max/
                                  |Flow|   Occurrence   |Veloc|    Full    Full
  Link                 Type          CMS  days hr:min     m/sec    Flow   Depth
  -----------------------------------------------------------------------------
  121                  CONDUIT     0.009     0  00:24      0.81    0.00    0.04
  122                  CONDUIT     0.013     0  00:28      0.92    0.00    0.05
  123                  CONDUIT     0.015     0  00:30      1.00    0.00    0.05
  124                  CONDUIT     0.016     0  00:31      1.03    0.01    0.05
  125                  CONDUIT     0.017     0  00:33      1.05    0.01    0.05
  126                  CONDUIT     0.017     0  00:34      1.06    0.01    0.05
  127                  CONDUIT     0.017     0  00:36      1.06    0.01    0.05
  128                  CONDUIT     0.017     0  00:36      1.06    0.01    0.05
  129                  CONDUIT     0.017     0  00:43      1.06    0.01    0.05
  130                  CONDUIT     0.017     0  00:39      0.82    0.01    0.06
  131                  CONDUIT     0.013     0  00:28      0.86    0.00    0.05
  132                  CONDUIT     0.022     0  00:38      1.06    0.01    0.06
  133                  CONDUIT     0.027     0  00:38      1.17    0.01    0.07
  134                  CONDUIT     0.030     0  00:39      1.24    0.01    0.07
  135                  CONDUIT     0.032     0  00:38      1.27    0.01    0.07
  136                  CONDUIT     0.033     0  00:43      1.29    0.01    0.07
  137                  CONDUIT     0.034     0  00:41      1.30    0.01    0.07
  138                  CONDUIT     0.034     0  00:42      1.31    0.01    0.07
  139                  CONDUIT     0.035     0  00:45      1.31    0.01    0.07
  140                  CONDUIT     0.035     0  00:46      0.92    0.01    0.09
  141                  CONDUIT     0.015     0  00:30      0.88    0.00    0.06
  142                  CONDUIT     0.027     0  00:38      1.11    0.01    0.07
  143                  CONDUIT     0.036     0  00:46      1.26    0.01    0.08
  144                  CONDUIT     0.042     0  00:39      1.35    0.01    0.08
  145                  CONDUIT     0.046     0  00:40      1.40    0.01    0.09
  146                  CONDUIT     0.048     0  00:41      1.44    0.02    0.09
  147                  CONDUIT     0.050     0  00:42      1.46    0.02    0.09
  148                  CONDUIT     0.051     0  00:44      1.47    0.02    0.09
  149                  CONDUIT     0.051     0  00:47      1.48    0.02    0.09
  150                  CONDUIT     0.052     0  00:49      0.96    0.02    0.12
  151                  CONDUIT     0.016     0  00:31      0.88    0.01    0.06
  152                  CONDUIT     0.030     0  00:39      1.13    0.01    0.08
  153                  CONDUIT     0.042     0  00:39      1.30    0.01    0.08
  154                  CONDUIT     0.050     0  00:44      1.41    0.02    0.09
  155                  CONDUIT     0.057     0  00:44      1.49    0.02    0.10
  156                  CONDUIT     0.061     0  00:48      1.54    0.02    0.10
  157                  CONDUIT     0.064     0  00:44      1.57    0.02    0.10
  158                  CONDUIT     0.066     0  00:48      1.59    0.02    0.10
  159                  CONDUIT     0.067     0  00:47      1.60    0.02    0.10
  160                  CONDUIT     0.068     0  00:49      0.97    0.02    0.15
  161                  CONDUIT     0.017     0  00:33      0.88    0.01    0.06
  162                  CONDUIT     0.032     0  00:38      1.14    0.01    0.08
  163                  CONDUIT     0.046     0  00:40      1.32    0.01    0.09
  164                  CONDUIT     0.057     0  00:44      1.45    0.02    0.10
  165                  CONDUIT     0.065     0  00:48      1.54    0.02    0.10
  166                  CONDUIT     0.072     0  00:53      1.60    0.02    0.11
  167                  CONDUIT     0.077     0  00:45      1.65    0.02    0.11
  168                  CONDUIT     0.080     0  00:51      1.68    0.03    0.11
  169                  CONDUIT     0.082     0  00:47      1.70    0.03    0.11
  170                  CONDUIT     0.084     0  00:49      0.96    0.03    0.17
  171                  CONDUIT     0.017     0  00:34      0.88    0.01    0.06
  172                  CONDUIT     0.033     0  00:43      1.14    0.01    0.08
  173                  CONDUIT     0.048     0  00:41      1.33    0.02    0.09
  174                  CONDUIT     0.061     0  00:48      1.48    0.02    0.10
  175                  CONDUIT     0.072     0  00:53      1.57    0.02    0.11
  176                  CONDUIT     0.081     0  00:45      1.65    0.03    0.11
  177                  CONDUIT     0.087     0  00:48      1.70    0.03    0.12
  178                  CONDUIT     0.093     0  00:49      1.74    0.03    0.12
  179                  CONDUIT     0.096     0  00:48      1.77    0.03    0.12
  180                  CONDUIT     0.099     0  00:50      0.95    0.03    0.19
  181                  CONDUIT     0.017     0  00:36      0.88    0.01    0.06
  182                  CONDUIT     0.034     0  00:41      1.15    0.01    0.08
  183                  CONDUIT     0.050     0  00:42      1.34    0.02    0.09
  184                  CONDUIT     0.064     0  00:44      1.49    0.02    0.10
  185                  CONDUIT     0.077     0  00:45      1.60    0.02    0.11
  186                  CONDUIT     0.087     0  00:48      1.68    0.03    0.12
  187                  CONDUIT     0.096     0  00:49      1.75    0.03    0.12
  188                  CONDUIT     0.103     0  00:49      1.79    0.03    0.13
  189                  CONDUIT     0.108     0  00:49      1.83    0.03    0.13
  190                  CONDUIT     0.112     0  00:55      0.92    0.04    0.21
  191                  CONDUIT     0.017     0  00:36      0.88    0.01    0.06
  192                  CONDUIT     0.034     0  00:42      1.15    0.01    0.08
  193                  CONDUIT     0.051     0  00:44      1.34    0.02    0.09
  194                  CONDUIT     0.066     0  00:48      1.49    0.02    0.11
  195                  CONDUIT     0.080     0  00:51      1.61    0.03    0.11
  196                  CONDUIT     0.093     0  00:49      1.70    0.03    0.12
  197                  CONDUIT     0.103     0  00:49      1.77    0.03    0.13
  198                  CONDUIT     0.112     0  00:50      1.83    0.04    0.13
  199                  CONDUIT     0.119     0  00:49      1.88    0.04    0.13
  200                  CONDUIT     0.124     0  00:57      0.89    0.04    0.23
  201                  CONDUIT     0.017     0  00:43      0.88    0.01    0.06
  202                  CONDUIT     0.035     0  00:45      1.15    0.01    0.08
  203                  CONDUIT     0.051     0  00:47      1.34    0.02    0.10
  204                  CONDUIT     0.067     0  00:47      1.49    0.02    0.11
  205                  CONDUIT     0.082     0  00:47      1.62    0.03    0.12
  206                  CONDUIT     0.096     0  00:48      1.71    0.03    0.12
  207                  CONDUIT     0.108     0  00:49      1.79    0.03    0.13
  208                  CONDUIT     0.119     0  00:49      1.86    0.04    0.14
  209                  CONDUIT     0.127     0  00:50      1.91    0.04    0.14
  210                  CONDUIT     0.134     0  00:57      0.86    0.04    0.25
  211                  CONDUIT     0.017     0  00:39      0.88    0.01    0.06
  212                  CONDUIT     0.035     0  00:46      1.15    0.01    0.08
  213                  CONDUIT     0.052     0  00:49      1.34    0.02    0.10
  214                  CONDUIT     0.068     0  00:49      1.50    0.02    0.11
  215                  CONDUIT     0.084     0  00:49      1.62    0.03    0.12
  216                  CONDUIT     0.099     0  00:50      1.72    0.03    0.13
  217                  CONDUIT     0.112     0  00:55      1.81    0.04    0.13
  218                  CONDUIT     0.124     0  00:57      1.88    0.04    0.14
  219                  CONDUIT     0.134     0  00:57      1.94    0.04    0.14
  220                  CONDUIT     0.143     0  00:58      0.83    0.05    0.27
  221                  CONDUIT     0.035     0  00:44      1.04    0.01    0.09
  222                  CONDUIT     0.087     0  00:46      1.41    0.03    0.13
  223                  CONDUIT     0.156     0  00:51      1.76    0.05    0.17
  224                  CONDUIT     0.241     0  00:53      2.07    0.08    0.21
  225                  CONDUIT     0.343     0  00:53      2.34    0.11    0.24
  226                  CONDUIT     0.459     0  00:54      2.59    0.15    0.28
  227                  CONDUIT     0.589     0  00:55      2.81    0.19    0.31
  228                  CONDUIT     0.730     0  00:55      3.02    0.23    0.35
  229                  CONDUIT     0.882     0  00:57      3.21    0.28    0.38
  230                  CONDUIT     1.042     0  00:57      1.42    0.33    0.88
  231                  CONDUIT     0.035     0  00:44      1.04    0.01    0.09
  232                  CONDUIT     0.087     0  00:46      1.41    0.03    0.13
  233                  CONDUIT     0.156     0  00:51      1.76    0.05    0.17
  234                  CONDUIT     0.241     0  00:51      2.07    0.08    0.21
  235                  CONDUIT     0.343     0  00:52      2.34    0.11    0.24
  236                  CONDUIT     0.459     0  00:54      2.59    0.15    0.28
  237                  CONDUIT     0.589     0  00:54      2.81    0.19    0.31
  238                  CONDUIT     0.730     0  00:54      3.02    0.23    0.35
  239                  CONDUIT     0.882     0  00:54      3.21    0.28    0.38
  240                  CONDUIT     1.042     0  00:58      1.42    0.33    0.88
  241                  CONDUIT     2.102     0  00:58      2.68   38.63    1.00
  1                    CONDUIT     0.009     0  00:24      0.81    0.00    0.04
  2                    CONDUIT     0.013     0  00:28      0.92    0.00    0.05
  3                    CONDUIT     0.015     0  00:30      1.00    0.00    0.05
  4                    CONDUIT     0.016     0  00:31      1.03    0.01    0.05
  5                    CONDUIT     0.017     0  00:33      1.05    0.01    0.05
  6                    CONDUIT     0.017     0  00:34      1.06    0.01    0.05
  7                    CONDUIT     0.017     0  00:36      1.06    0.01    0.05
  8                    CONDUIT     0.017     0  00:36      1.06    0.01    0.05
  9                    CONDUIT     0.017     0  00:43      1.06    0.01    0.05
  10                   CONDUIT     0.017     0  00:39      0.82    0.01    0.06
  11                   CONDUIT     0.013     0  00:28      0.86    0.00    0.05
  12                   CONDUIT     0.022     0  00:38      1.06    0.01    0.06
  13                   CONDUIT     0.027     0  00:38      1.17    0.01    0.07
  14                   CONDUIT     0.030     0  00:39      1.24    0.01    0.07
  15                   CONDUIT     0.032     0  00:38      1.27    0.01    0.07
  16                   CONDUIT     0.033     0  00:43      1.29    0.01    0.07
  17                   CONDUIT     0.034     0  00:41      1.30    0.01    0.07
  18                   CONDUIT     0.034     0  00:42      1.31    0.01    0.07
  19                   CONDUIT     0.035     0  00:45      1.31    0.01    0.07
  20                   CONDUIT     0.035     0  00:46      0.92    0.01    0.09
  21                   CONDUIT     0.015     0  00:30      0.88    0.00    0.06
  22                   CONDUIT     0.027     0  00:38      1.11    0.01    0.07
  23                   CONDUIT     0.036     0  00:46      1.26    0.01    0.08
  24                   CONDUIT     0.042     0  00:39      1.35    0.01    0.08
  25                   CONDUIT     0.046     0  00:40      1.40    0.01    0.09
  26                   CONDUIT     0.048     0  00:41      1.44    0.02    0.09
  27                   CONDUIT     0.050     0  00:42      1.46    0.02    0.09
  28                   CONDUIT     0.051     0  00:44      1.47    0.02    0.09
  29                   CONDUIT     0.051     0  00:47      1.48    0.02    0.09
  30                   CONDUIT     0.052     0  00:49      0.96    0.02    0.12
  31                   CONDUIT     0.016     0  00:31      0.88    0.01    0.06
  32                   CONDUIT     0.030     0  00:39      1.13    0.01    0.08
  33                   CONDUIT     0.042     0  00:39      1.30    0.01    0.08
  34                   CONDUIT     0.050     0  00:44      1.41    0.02    0.09
  35                   CONDUIT     0.057     0  00:44      1.49    0.02    0.10
  36                   CONDUIT     0.061     0  00:48      1.54    0.02    0.10
  37                   CONDUIT     0.064     0  00:44      1.57    0.02    0.10
  38                   CONDUIT     0.066     0  00:48      1.59    0.02    0.10
  39                   CONDUIT     0.067     0  00:47      1.60    0.02    0.10
  40                   CONDUIT     0.068     0  00:49      0.97    0.02    0.15
  41                   CONDUIT     0.017     0  00:33      0.88    0.01    0.06
  42                   CONDUIT     0.032     0  00:38      1.14    0.01    0.08
  43                   CONDUIT     0.046     0  00:40      1.32    0.01    0.09
  44                   CONDUIT     0.057     0  00:44      1.45    0.02    0.10
  45                   CONDUIT     0.065     0  00:48      1.54    0.02    0.10
  46                   CONDUIT     0.072     0  00:53      1.60    0.02    0.11
  47                   CONDUIT     0.077     0  00:45      1.65    0.02    0.11
  48                   CONDUIT     0.080     0  00:51      1.68    0.03    0.11
  49                   CONDUIT     0.082     0  00:47      1.70    0.03    0.11
  50                   CONDUIT     0.084     0  00:49      0.96    0.03    0.17
  51                   CONDUIT     0.017     0  00:34      0.88    0.01    0.06
  52                   CONDUIT     0.033     0  00:43      1.14    0.01    0.08
  53                   CONDUIT     0.048     0  00:41      1.33    0.02    0.09
  54                   CONDUIT     0.061     0  00:48      1.48    0.02    0.10
  55                   CONDUIT     0.072     0  00:53      1.57    0.02    0.11
  56                   CONDUIT     0.081     0  00:45      1.65    0.03    0.11
  57                   CONDUIT     0.087     0  00:48      1.70    0.03    0.12
  58                   CONDUIT     0.093     0  00:49      1.74    0.03    0.12
  59                   CONDUIT     0.096     0  00:48      1.77    0.03    0.12
  60                   CONDUIT     0.099     0  00:50      0.95    0.03    0.19
  61                   CONDUIT     0.017     0  00:36      0.88    0.01    0.06
  62                   CONDUIT     0.034     0  00:41      1.15    0.01    0.08
  63                   CONDUIT     0.050     0  00:42      1.34    0.02    0.09
  64                   CONDUIT     0.064     0  00:44      1.49    0.02    0.10
  65                   CONDUIT     0.077     0  00:45      1.60    0.02    0.11
  66                   CONDUIT     0.087     0  00:48      1.68    0.03    0.12
  67                   CONDUIT     0.096     0  00:49      1.75    0.03    0.12
  68                   CONDUIT     0.103     0  00:49      1.79    0.03    0.13
  69                   CONDUIT     0.108     0  00:49      1.83    0.03    0.13
  70                   CONDUIT     0.112     0  00:55      0.92    0.04    0.21
  71                   CONDUIT     0.017     0  00:36      0.88    0.01    0.06
  72                   CONDUIT     0.034     0  00:42      1.15    0.01    0.08
  73                   CONDUIT     0.051     0  00:44      1.34    0.02    0.09
  74                   CONDUIT     0.066     0  00:48      1.49    0.02    0.11
  75                   CONDUIT     0.080     0  00:51      1.61    0.03    0.11
  76                   CONDUIT     0.093     0  00:49      1.70    0.03    0.12
  77                   CONDUIT     0.103     0  00:49      1.77    0.03    0.13
  78                   CONDUIT     0.112     0  00:50      1.83    0.04    0.13
  79                   CONDUIT     0.119     0  00:49      1.88    0.04    0.13
  80                   CONDUIT     0.124     0  00:57      0.89    0.04    0.23
  81                   CONDUIT     0.017     0  00:43      0.88    0.01    0.06
  82                   CONDUIT     0.035     0  00:45      1.15    0.01    0.08
  83                   CONDUIT     0.051     0  00:47      1.34    0.02    0.10
  84                   CONDUIT     0.067     0  00:47      1.49    0.02    0.11
  85                   CONDUIT     0.082     0  00:47      1.62    0.03    0.12
  86                   CONDUIT     0.096     0  00:48      1.71    0.03    0.12
  87                   CONDUIT     0.108     0  00:49      1.79    0.03    0.13
  88                   CONDUIT     0.119     0  00:49      1.86    0.04    0.14
  89                   CONDUIT     0.127     0  00:50      1.91    0.04    0.14
  90                   CONDUIT     0.134     0  00:57      0.86    0.04    0.25
  91                   CONDUIT     0.017     0  00:39      0.88    0.01    0.06
  92                   CONDUIT     0.035     0  00:46      1.15    0.01    0.08
  93                   CONDUIT     0.052     0  00:49      1.34    0.02    0.10
  94                   CONDUIT     0.068     0  00:49      1.50    0.02    0.11
  95                   CONDUIT     0.084     0  00:49      1.62    0.03    0.12
  96                   CONDUIT     0.099     0  00:50      1.72    0.03    0.13
  97                   CONDUIT     0.112     0  00:55      1.81    0.04    0.13
  98                   CONDUIT     0.124     0  00:57      1.88    0.04    0.14
  99                   CONDUIT     0.134     0  00:57      1.94    0.04    0.14
  100                  CONDUIT     0.143     0  00:58      0.83    0.05    0.27
  
  
  ***************************
  Flow Classification Summary
  ***************************
  
  -------------------------------------------------------------------------------------
                      Adjusted    ---------- Fraction of Time in Flow Class ---------- 
                       /Actual         Up    Down  Sub   Sup   Up    Down  Norm  Inlet 
  Conduit               Length    Dry  Dry   Dry   Crit  Crit  Crit  Crit  Ltd   Ctrl  
  -------------------------------------------------------------------------------------
  121                     1.00   0.00  0.00  0.00  0.00  1.00  0.00  0.00  1.00  0.00
  122                     1.00   0.00  0.00  0.00  0.00  1.00  0.00  0.00  0.99  0.00
  123                     1.00   0.00  0.00  0.00  0.00  1.00  0.00  0.00  0.99  0.00
  124                     1.00   0.00  0.00  0.00  0.00  1.00  0.00  0.00  0.99  0.00
  125                     1.00   0.00  0.00  0.00  0.00  1.00  0.00  0.00  0.99  0.00
  126                     1.00   0.00  0.00  0.00  0.00  1.00  0.00  0.00  0.98  0.00
  127                     1.00   0.00  0.00  0.00  0.00  1.00  0.00  0.00  0.98  0.00
  128                     1.00   0.00  0.00  0.00  0.00  1.00  0.00  0.00  0.98  0.00
  129                     1.00   0.00  0.00  0.00  0.00  1.00  0.00  0.00  0.97  0.00
  130                     1.00   0.00  0.00  0.00  0.00  1.00  0.00  0.00  1.00  0.00
  131                     1.00   0.00  0.00  0.00  0.00  1.00  0.00  0.00  1.00  0.00
  132                     1.00   0.00  0.00  0.00  0.00  1.00  0.00  0.00  0.99  0.00
  133                     1.00   0.00  0.00  0.00  0.00  1.00  0.00  0.00  0.99  0.00
  134                     1.00   0.00  0.00  0.00  0.00  1.00  0.00  0.00  0.99  0.00
  135                     1.00   0.00  0.00  0.00  0.00  1.00  0.00  0.00  0.98  0.00
  136                     1.00   0.00  0.00  0.00  0.00  1.00  0.00  0.00  0.98  0.00
  137                     1.00   0.00  0.00  0.00  0.00  1.00  0.00  0.00  0.98  0.00
  138                     1.00   0.00  0.00  0.00  0.00  1.00  0.00  0.00  0.98  0.00
  139                     1.00   0.00  0.00  0.00  0.00  1.00  0.00  0.00  0.97  0.00
  140                     1.00   0.00  0.00  0.00  0.00  1.00  0.00  0.00  1.00  0.00
  141                     1.00   0.00  0.00  0.00  0.00  1.00  0.00  0.00  0.99  0.00
  142                     1.00   0.00  0.00  0.00  0.00  1.00  0.00  0.00  0.99  0.00
  143                     1.00   0.00  0.00  0.00  0.00  1.00  0.00  0.00  0.99  0.00
  144                     1.00   0.00  0.00  0.00  0.00  1.00  0.00  0.00  0.99  0.00
  145                     1.00   0.00  0.00  0.00  0.00  1.00  0.00  0.00  0.98  0.00
  146                     1.00   0.00  0.00  0.00  0.00  1.00  0.00  0.00  0.98  0.00
  147                     1.00   0.00  0.00  0.00  0.00  1.00  0.00  0.00  0.98  0.00
  148                     1.00   0.00  0.00  0.00  0.00  1.00  0.00  0.00  0.98  0.00
  149                     1.00   0.00  0.00  0.00  0.00  1.00  0.00  0.00  0.97  0.00
  150                     1.00   0.00  0.00  0.00  0.00  1.00  0.00  0.00  1.00  0.00
  151                     1.00   0.00  0.00  0.00  0.00  1.00  0.00  0.00  0.99  0.00
  152                     1.00   0.00  0.00  0.00  0.00  1.00  0.00  0.00  0.99  0.00
  153                     1.00   0.00  0.00  0.00  0.00  1.00  0.00  0.00  0.99  0.00
  154                     1.00   0.00  0.00  0.00  0.00  1.00  0.00  0.00  0.99  0.00
  155                     1.00   0.00  0.00  0.00  0.00  1.00  0.00  0.00  0.98  0.00
  156                     1.00   0.00  0.00  0.00  0.00  1.00  0.00  0.00  0.98  0.00
  157                     1.00   0.00  0.00  0.00  0.00  1.00  0.00  0.00  0.98  0.00
  158                     1.00   0.00  0.00  0.00  0.00  1.00  0.00  0.00  0.97  0.00
  159                     1.00   0.00  0.00  0.00  0.00  1.00  0.00  0.00  0.97  0.00
  160                     1.00   0.00  0.00  0.00  0.99  0.01  0.00  0.00  1.00  0.00
  161                     1.00   0.00  0.00  0.00  0.00  1.00  0.00  0.00  0.99  0.00
  162                     1.00   0.00  0.00  0.00  0.00  1.00  0.00  0.00  0.99  0.00
  163                     1.00   0.00  0.00  0.00  0.00  1.00  0.00  0.00  0.99  0.00
  164                     1.00   0.00  0.00  0.00  0.00  1.00  0.00  0.00  0.99  0.00
  165                     1.00   0.00  0.00  0.00  0.00  1.00  0.00  0.00  0.98  0.00
  166                     1.00   0.00  0.00  0.00  0.00  1.00  0.00  0.00  0.98  0.00
  167                     1.00   0.00  0.00  0.00  0.00  1.00  0.00  0.00  0.98  0.00
  168                     1.00   0.00  0.00  0.00  0.00  1.00  0.00  0.00  0.97  0.00
  169                     1.00   0.00  0.00  0.00  0.00  1.00  0.00  0.00  0.97  0.00
  170                     1.00   0.00  0.00  0.00  0.99  0.01  0.00  0.00  1.00  0.00
  171                     1.00   0.00  0.00  0.00  0.00  1.00  0.00  0.00  0.99  0.00
  172                     1.00   0.00  0.00  0.00  0.00  1.00  0.00  0.00  0.99  0.00
  173                     1.00   0.00  0.00  0.00  0.00  1.00  0.00  0.00  0.99  0.00
  174                     1.00   0.00  0.00  0.00  0.00  1.00  0.00  0.00  0.99  0.00
  175                     1.00   0.00  0.00  0.00  0.00  1.00  0.00  0.00  0.98  0.00
  176                     1.00   0.00  0.00  0.00  0.00  1.00  0.00  0.00  0.98  0.00
  177                     1.00   0.00  0.00  0.00  0.00  1.00  0.00  0.00  0.98  0.00
  178                     1.00   0.00  0.00  0.00  0.00  1.00  0.00  0.00  0.97  0.00
  179                     1.00   0.00  0.00  0.00  0.00  1.00  0.00  0.00  0.97  0.00
  180                     1.00   0.00  0.00  0.00  0.99  0.01  0.00  0.00  1.00  0.00
  181                     1.00   0.00  0.00  0.00  0.00  1.00  0.00  0.00  0.99  0.00
  182                     1.00   0.00  0.00  0.00  0.00  1.00  0.00  0.00  0.99  0.00
  183                     1.00   0.00  0.00  0.00  0.00  1.00  0.00  0.00  0.99  0.00
  184                     1.00   0.00  0.00  0.00  0.00  1.00  0.00  0.00  0.99  0.00
  185                     1.00   0.00  0.00  0.00  0.00  1.00  0.00  0.00  0.98  0.00
  186                     1.00   0.00  0.00  0.00  0.00  1.00  0.00  0.00  0.98  0.00
  187                     1.00   0.00  0.00  0.00  0.00  1.00  0.00  0.00  0.98  0.00
  188                     1.00   0.00  0.00  0.00  0.00  1.00  0.00  0.00  0.97  0.00
  189                     1.00   0.00  0.00  0.00  0.00  1.00  0.00  0.00  0.97  0.00
  190                     1.00   0.00  0.00  0.00  0.99  0.01  0.00  0.00  1.00  0.00
  191                     1.00   0.00  0.00  0.00  0.00  1.00  0.00  0.00  0.99  0.00
  192                     1.00   0.00  0.00  0.00  0.00  1.00  0.00  0.00  0.99  0.00
  193                     1.00   0.00  0.00  0.00  0.00  1.00  0.00  0.00  0.99  0.00
  194                     1.00   0.00  0.00  0.00  0.00  1.00  0.00  0.00  0.99  0.00
  195                     1.00   0.00  0.00  0.00  0.00  1.00  0.00  0.00  0.98  0.00
  196                     1.00   0.00  0.00  0.00  0.00  1.00  0.00  0.00  0.98  0.00
  197                     1.00   0.00  0.00  0.00  0.00  1.00  0.00  0.00  0.98  0.00
  198                     1.00   0.00  0.00  0.00  0.00  1.00  0.00  0.00  0.97  0.00
  199                     1.00   0.00  0.00  0.00  0.00  1.00  0.00  0.00  0.97  0.00
  200                     1.00   0.00  0.00  0.00  0.99  0.01  0.00  0.00  1.00  0.00
  201                     1.00   0.00  0.00  0.00  0.00  1.00  0.00  0.00  0.99  0.00
  202                     1.00   0.00  0.00  0.00  0.00  1.00  0.00  0.00  0.99  0.00
  203                     1.00   0.00  0.00  0.00  0.00  1.00  0.00  0.00  0.99  0.00
  204                     1.00   0.00  0.00  0.00  0.00  1.00  0.00  0.00  0.99  0.00
  205                     1.00   0.00  0.00  0.00  0.00  1.00  0.00  0.00  0.98  0.00
  206                     1.00   0.00  0.00  0.00  0.00  1.00  0.00  0.00  0.98  0.00
  207                     1.00   0.00  0.00  0.00  0.00  1.00  0.00  0.00  0.98  0.00
  208                     1.00   0.00  0.00  0.00  0.00  1.00  0.00  0.00  0.97  0.00
  209                     1.00   0.00  0.00  0.00  0.00  1.00  0.00  0.00  0.97  0.00
  210                     1.00   0.00  0.00  0.00  0.99  0.01  0.00  0.00  1.00  0.00
  211                     1.00   0.00  0.00  0.00  0.00  1.00  0.00  0.00  0.99  0.00
  212                     1.00   0.00  0.00  0.00  0.00  1.00  0.00  0.00  0.99  0.00
  213                     1.00   0.00  0.00  0.00  0.00  1.00  0.00  0.00  0.99  0.00
  214                     1.00   0.00  0.00  0.00  0.00  1.00  0.00  0.00  0.99  0.00
  215                     1.00   0.00  0.00  0.00  0.00  1.00  0.00  0.00  0.98  0.00
  216                     1.00   0.00  0.00  0.00  0.00  1.00  0.00  0.00  0.98  0.00
  217                     1.00   0.00  0.00  0.00  0.00  1.00  0.00  0.00  0.98  0.00
  218                     1.00   0.00  0.00  0.00  0.00  1.00  0.00  0.00  0.97  0.00
  219                     1.00   0.00  0.00  0.00  0.00  1.00  0.00  0.00  0.97  0.00
  220                     1.00   0.00  0.00  0.00  0.99  0.01  0.00  0.00  1.00  0.00
  221                     1.00   0.00  0.00  0.00  0.00  1.00  0.00  0.00  1.00  0.00
  222                     1.00   0.00  0.00  0.00  0.00  1.00  0.00  0.00  0.99  0.00
  223                     1.00   0.00  0.00  0.00  0.00  1.00  0.00  0.00  0.99  0.00
  224                     1.00   0.00  0.00  0.00  0.00  1.00  0.00  0.00  0.99  0.00
  225                     1.00   0.00  0.00  0.00  0.00  1.00  0.00  0.00  0.99  0.00
  226                     1.00   0.00  0.00  0.00  0.00  1.00  0.00  0.00  0.98  0.00
  227                     1.00   0.00  0.00  0.00  0.00  1.00  0.00  0.00  0.98  0.00
  228                     1.00   0.00  0.00  0.00  0.00  1.00  0.00  0.00  0.98  0.00
  229                     1.00   0.00  0.00  0.00  0.00  1.00  0.00  0.00  0.98  0.00
  230                     1.00   0.00  0.00  0.00  0.99  0.01  0.00  0.00  1.00  0.00
  231                     1.00   0.00  0.00  0.00  0.00  1.00  0.00  0.00  1.00  0.00
  232                     1.00   0.00  0.00  0.00  0.00  1.00  0.00  0.00  0.99  0.00
  233                     1.00   0.00  0.00  0.00  0.00  1.00  0.00  0.00  0.99  0.00
  234                     1.00   0.00  0.00  0.00  0.00  1.00  0.00  0.00  0.99  0.00
  235                     1.00   0.00  0.00  0.00  0.00  1.00  0.00  0.00  0.99  0.00
  236                     1.00   0.00  0.00  0.00  0.00  1.00  0.00  0.00  0.98  0.00
  237                     1.00   0.00  0.00  0.00  0.00  1.00  0.00  0.00  0.98  0.00
  238                     1.00   0.00  0.00  0.00  0.00  1.00  0.00  0.00  0.98  0.00
  239                     1.00   0.00  0.00  0.00  0.00  1.00  0.00  0.00  0.98  0.00
  240                     1.00   0.00  0.00  0.00  0.99  0.01  0.00  0.00  1.00  0.00
  241                     1.00   0.00  0.00  0.00  1.00  0.00  0.00  0.00  0.00  0.00
  1                       1.00   0.00  0.00  0.00  0.00  1.00  0.00  0.00  1.00  0.00
  2                       1.00   0.00  0.00  0.00  0.00  1.00  0.00  0.00  0.99  0.00
  3                       1.00   0.00  0.00  0.00  0.00  1.00  0.00  0.00  0.99  0.00
  4                       1.00   0.00  0.00  0.00  0.00  1.00  0.00  0.00  0.99  0.00
  5                       1.00   0.00  0.00  0.00  0.00  1.00  0.00  0.00  0.99  0.00
  6                       1.00   0.00  0.00  0.00  0.00  1.00  0.00  0.00  0.98  0.00
  7                       1.00   0.00  0.00  0.00  0.00  1.00  0.00  0.00  0.98  0.00
  8                       1.00   0.00  0.00  0.00  0.00  1.00  0.00  0.00  0.98  0.00
  9                       1.00   0.00  0.00  0.00  0.00  1.00  0.00  0.00  0.97  0.00
  10                      1.00   0.00  0.00  0.00  0.00  1.00  0.00  0.00  1.00  0.00
  11                      1.00   0.00  0.00  0.00  0.00  1.00  0.00  0.00  1.00  0.00
  12                      1.00   0.00  0.00  0.00  0.00  1.00  0.00  0.00  0.99  0.00
  13                      1.00   0.00  0.00  0.00  0.00  1.00  0.00  0.00  0.99  0.00
  14                      1.00   0.00  0.00  0.00  0.00  1.00  0.00  0.00  0.99  0.00
  15                      1.00   0.00  0.00  0.00  0.00  1.00  0.00  0.00  0.98  0.00
  16                      1.00   0.00  0.00  0.00  0.00  1.00  0.00  0.00  0.98  0.00
  17                      1.00   0.00  0.00  0.00  0.00  1.00  0.00  0.00  0.98  0.00
  18                      1.00   0.00  0.00  0.00  0.00  1.00  0.00  0.00  0.98  0.00
  19                      1.00   0.00  0.00  0.00  0.00  1.00  0.00  0.00  0.97  0.00
  20                      1.00   0.00  0.00  0.00  0.00  1.00  0.00  0.00  1.00  0.00
  21                      1.00   0.00  0.00  0.00  0.00  1.00  0.00  0.00  0.99  0.00
  22                      1.00   0.00  0.00  0.00  0.00  1.00  0.00  0.00  0.99  0.00
  23                      1.00   0.00  0.00  0.00  0.00  1.00  0.00  0.00  0.99  0.00
  24                      1.00   0.00  0.00  0.00  0.00  1.00  0.00  0.00  0.99  0.00
  25                      1.00   0.00  0.00  0.00  0.00  1.00  0.00  0.00  0.98  0.00
  26                      1.00   0.00  0.00  0.00  0.00  1.00  0.00  0.00  0.98  0.00
  27                      1.00   0.00  0.00  0.00  0.00  1.00  0.00  0.00  0.98  0.00
  28                      1.00   0.00  0.00  0.00  0.00  1.00  0.00  0.00  0.98  0.00
  29                      1.00   0.00  0.00  0.00  0.00  1.00  0.00  0.00  0.97  0.00
  30                      1.00   0.00  0.00  0.00  0.00  1.00  0.00  0.00  1.00  0.00
  31                      1.00   0.00  0.00  0.00  0.00  1.00  0.00  0.00  0.99  0.00
  32                      1.00   0.00  0.00  0.00  0.00  1.00  0.00  0.00  0.99  0.00
  33                      1.00   0.00  0.00  0.00  0.00  1.00  0.00  0.00  0.99  0.00
  34                      1.00   0.00  0.00  0.00  0.00  1.00  0.00  0.00  0.99  0.00
  35                      1.00   0.00  0.00  0.00  0.00  1.00  0.00  0.00  0.98  0.00
  36                      1.00   0.00  0.00  0.00  0.00  1.00  0.00  0.00  0.98  0.00
  37                      1.00   0.00  0.00  0.00  0.00  1.00  0.00  0.00  0.98  0.00
  38                      1.00   0.00  0.00  0.00  0.00  1.00  0.00  0.00  0.97  0.00
  39                      1.00   0.00  0.00  0.00  0.00  1.00  0.00  0.00  0.97  0.00
  40                      1.00   0.00  0.00  0.00  0.99  0.01  0.00  0.00  1.00  0.00
  41                      1.00   0.00  0.00  0.00  0.00  1.00  0.00  0.00  0.99  0.00
  42                      1.00   0.00  0.00  0.00  0.00  1.00  0.00  0.00  0.99  0.00
  43                      1.00   0.00  0.00  0.00  0.00  1.00  0.00  0.00  0.99  0.00
  44                      1.00   0.00  0.00  0.00  0.00  1.00  0.00  0.00  0.99  0.00
  45                      1.00   0.00  0.00  0.00  0.00  1.00  0.00  0.00  0.98  0.00
  46                      1.00   0.00  0.00  0.00  0.00  1.00  0.00  0.00  0.98  0.00
  47                      1.00   0.00  0.00  0.00  0.00  1.00  0.00  0.00  0.98  0.00
  48                      1.00   0.00  0.00  0.00  0.00  1.00  0.00  0.00  0.97  0.00
  49                      1.00   0.00  0.00  0.00  0.00  1.00  0.00  0.00  0.97  0.00
  50                      1.00   0.00  0.00  0.00  0.99  0.01  0.00  0.00  1.00  0.00
  51                      1.00   0.00  0.00  0.00  0.00  1.00  0.00  0.00  0.99  0.00
  52                      1.00   0.00  0.00  0.00  0.00  1.00  0.00  0.00  0.99  0.00
  53                      1.00   0.00  0.00  0.00  0.00  1.00  0.00  0.00  0.99  0.00
  54                      1.00   0.00  0.00  0.00  0.00  1.00  0.00  0.00  0.99  0.00
  55                      1.00   0.00  0.00  0.00  0.00  1.00  0.00  0.00  0.98  0.00
  56                      1.00   0.00  0.00  0.00  0.00  1.00  0.00  0.00  0.98  0.00
  57                      1.00   0.00  0.00  0.00  0.00  1.00  0.00  0.00  0.98  0.00
  58                      1.00   0.00  0.00  0.00  0.00  1.00  0.00  0.00  0.97  0.00
  59                      1.00   0.00  0.00  0.00  0.00  1.00  0.00  0.00  0.97  0.00
  60                      1.00   0.00  0.00  0.00  0.99  0.01  0.00  0.00  1.00  0.00
  61                      1.00   0.00  0.00  0.00  0.00  1.00  0.00  0.00  0.99  0.00
  62                      1.00   0.00  0.00  0.00  0.00  1.00  0.00  0.00  0.99  0.00
  63                      1.00   0.00  0.00  0.00  0.00  1.00  0.00  0.00  0.99  0.00
  64                      1.00   0.00  0.00  0.00  0.00  1.00  0.00  0.00  0.99  0.00
  65                      1.00   0.00  0.00  0.00  0.00  1.00  0.00  0.00  0.98  0.00
  66                      1.00   0.00  0.00  0.00  0.00  1.00  0.00  0.00  0.98  0.00
  67                      1.00   0.00  0.00  0.00  0.00  1.00  0.00  0.00  0.98  0.00
  68                      1.00   0.00  0.00  0.00  0.00  1.00  0.00  0.00  0.97  0.00
  69                      1.00   0.00  0.00  0.00  0.00  1.00  0.00  0.00  0.97  0.00
  70                      1.00   0.00  0.00  0.00  0.99  0.01  0.00  0.00  1.00  0.00
  71                      1.00   0.00  0.00  0.00  0.00  1.00  0.00  0.00  0.99  0.00
  72                      1.00   0.00  0.00  0.00  0.00  1.00  0.00  0.00  0.99  0.00
  73                      1.00   0.00  0.00  0.00  0.00  1.00  0.00  0.00  0.99  0.00
  74                      1.00   0.00  0.00  0.00  0.00  1.00  0.00  0.00  0.99  0.00
  75                      1.00   0.00  0.00  0.00  0.00  1.00  0.00  0.00  0.98  0.00
  76                      1.00   0.00  0.00  0.00  0.00  1.00  0.00  0.00  0.98  0.00
  77                      1.00   0.00  0.00  0.00  0.00  1.00  0.00  0.00  0.98  0.00
  78                      1.00   0.00  0.00  0.00  0.00  1.00  0.00  0.00  0.97  0.00
  79                      1.00   0.00  0.00  0.00  0.00  1.00  0.00  0.00  0.97  0.00
  80                      1.00   0.00  0.00  0.00  0.99  0.01  0.00  0.00  1.00  0.00
  81                      1.00   0.00  0.00  0.00  0.00  1.00  0.00  0.00  0.99  0.00
  82                      1.00   0.00  0.00  0.00  0.00  1.00  0.00  0.00  0.99  0.00
  83                      1.00   0.00  0.00  0.00  0.00  1.00  0.00  0.00  0.99  0.00
  84                      1.00   0.00  0.00  0.00  0.00  1.00  0.00  0.00  0.99  0.00
  85                      1.00   0.00  0.00  0.00  0.00  1.00  0.00  0.00  0.98  0.00
  86                      1.00   0.00  0.00  0.00  0.00  1.00  0.00  0.00  0.98  0.00
  87                      1.00   0.00  0.00  0.00  0.00  1.00  0.00  0.00  0.98  0.00
  88                      1.00   0.00  0.00  0.00  0.00  1.00  0.00  0.00  0.97  0.00
  89                      1.00   0.00  0.00  0.00  0.00  1.00  0.00  0.00  0.97  0.00
  90                      1.00   0.00  0.00  0.00  0.99  0.01  0.00  0.00  1.00  0.00
  91                      1.00   0.00  0.00  0.00  0.00  1.00  0.00  0.00  0.99  0.00
  92                      1.00   0.00  0.00  0.00  0.00  1.00  0.00  0.00  0.99  0.00
  93                      1.00   0.00  0.00  0.00  0.00  1.00  0.00  0.00  0.99  0.00
  94                      1.00   0.00  0.00  0.00  0.00  1.00  0.00  0.00  0.99  0.00
  95                      1.00   0.00  0.00  0.00  0.00  1.00  0.00  0.00  0.98  0.00
  96                      1.00   0.00  0.00  0.00  0.00  1.00  0.00  0.00  0.98  0.00
  97                      1.00   0.00  0.00  0.00  0.00  1.00  0.00  0.00  0.98  0.00
  98                      1.00   0.00  0.00  0.00  0.00  1.00  0.00  0.00  0.97  0.00
  99                      1.00   0.00  0.00  0.00  0.00  1.00  0.00  0.00  0.97  0.00
  100                     1.00   0.00  0.00  0.00  0.99  0.01  0.00  0.00  1.00  0.00
  
  
  *************************
  Conduit Surcharge Summary
  *************************
  
  ----------------------------------------------------------------------------
                                                           Hours        Hours 
                         --------- Hours Full --------   Above Full   Capacity
  Conduit                Both Ends  Upstream  Dnstream   Normal Flow   Limited
  ----------------------------------------------------------------------------
  230                         0.01      0.01      5.81      0.01         0.01
  240                         0.01      0.01      5.81      0.01         0.01
  241                         0.01      5.81      0.01      5.92         5.77
  

  Analysis begun on:  Thu Jan 12 17:20:18 2023
  Analysis ended on:  Thu Jan 12 17:20:20 2023
  Total elapsed time: 00:00:02