
  EPA STORM WATER MANAGEMENT MODEL - VERSION 5.1 (Build 5.1.015)
  --------------------------------------------------------------

  WARNING 04: minimum elevation drop used for Conduit 241
  
  *********************************************************
  NOTE: The summary statistics displayed in this report are
  based on results found at every computational time step,  
  not just on results from each reporting time step.
  *********************************************************
  
  ****************
  Analysis Options
  ****************
  Flow Units ............... CMS
  Process Models:
    Rainfall/Runoff ........ NO
    RDII ................... NO
    Snowmelt ............... NO
    Groundwater ............ NO
    Flow Routing ........... YES
    Ponding Allowed ........ NO
    Water Quality .......... NO
  Flow Routing Method ...... DYNWAVE
  Surcharge Method ......... SLOT
  Starting Date ............ 10/31/2022 00:00:00
  Ending Date .............. 10/31/2022 06:00:00
  Antecedent Dry Days ...... 0.0
  Report Time Step ......... 00:00:10
  Routing Time Step ........ 1.00 sec
  Variable Time Step ....... NO
  Maximum Trials ........... 8
  Number of Threads ........ 6
  Head Tolerance ........... 0.001500 m
  
  
  **************************        Volume        Volume
  Flow Routing Continuity        hectare-m      10^6 ltr
  **************************     ---------     ---------
  Dry Weather Inflow .......         0.000         0.000
  Wet Weather Inflow .......         0.000         0.000
  Groundwater Inflow .......         0.000         0.000
  RDII Inflow ..............         0.000         0.000
  External Inflow ..........         4.541        45.406
  External Outflow .........         3.499        34.986
  Flooding Loss ............         0.000         0.000
  Evaporation Loss .........         0.000         0.000
  Exfiltration Loss ........         0.000         0.000
  Initial Stored Volume ....         0.000         0.000
  Final Stored Volume ......         0.982         9.819
  Continuity Error (%) .....         1.322
  
  
  *************************
  Highest Continuity Errors
  *************************
  Node E01 (12.26%)
  Node D01 (12.25%)
  Node F01 (12.23%)
  Node G01 (12.19%)
  Node H01 (12.13%)
  
  
  ********************************
  Highest Flow Instability Indexes
  ********************************
  All links are stable.
  
  
  *************************
  Routing Time Step Summary
  *************************
  Minimum Time Step           :     1.00 sec
  Average Time Step           :     1.00 sec
  Maximum Time Step           :     1.00 sec
  Percent in Steady State     :     0.00
  Average Iterations per Step :     2.00
  Percent Not Converging      :     0.00
  
  
  ******************
  Node Depth Summary
  ******************
  
  ---------------------------------------------------------------------------------
                                 Average  Maximum  Maximum  Time of Max    Reported
                                   Depth    Depth      HGL   Occurrence   Max Depth
  Node                 Type       Meters   Meters   Meters  days hr:min      Meters
  ---------------------------------------------------------------------------------
  A00                  JUNCTION     2.13     3.52     5.52     0  06:00        3.52
  A01                  JUNCTION     2.21     3.62     5.52     0  06:00        3.62
  A02                  JUNCTION     2.30     3.72     5.52     0  06:00        3.72
  A03                  JUNCTION     2.38     3.82     5.52     0  06:00        3.82
  A04                  JUNCTION     2.46     3.92     5.52     0  06:00        3.92
  A05                  JUNCTION     2.55     4.02     5.52     0  06:00        4.02
  A06                  JUNCTION     2.63     4.12     5.52     0  06:00        4.12
  A07                  JUNCTION     2.72     4.21     5.51     0  06:00        4.21
  A08                  JUNCTION     2.80     4.31     5.51     0  06:00        4.31
  A09                  JUNCTION     2.89     4.40     5.50     0  06:00        4.40
  A10                  JUNCTION     2.98     4.49     5.49     0  06:00        4.49
  B00                  JUNCTION     2.20     3.61     5.51     0  06:00        3.61
  B01                  JUNCTION     2.28     3.71     5.51     0  06:00        3.71
  B02                  JUNCTION     2.37     3.81     5.51     0  06:00        3.81
  B03                  JUNCTION     2.45     3.91     5.51     0  06:00        3.91
  B04                  JUNCTION     2.54     4.01     5.51     0  06:00        4.01
  B05                  JUNCTION     2.62     4.11     5.51     0  06:00        4.11
  B06                  JUNCTION     2.71     4.21     5.51     0  06:00        4.21
  B07                  JUNCTION     2.80     4.30     5.50     0  06:00        4.30
  B08                  JUNCTION     2.89     4.40     5.50     0  06:00        4.40
  B09                  JUNCTION     2.98     4.49     5.49     0  06:00        4.49
  B10                  JUNCTION     3.07     4.59     5.49     0  06:00        4.59
  C00                  JUNCTION     2.25     3.68     5.48     0  06:00        3.68
  C01                  JUNCTION     2.34     3.78     5.48     0  06:00        3.78
  C02                  JUNCTION     2.43     3.88     5.48     0  06:00        3.88
  C03                  JUNCTION     2.51     3.98     5.48     0  06:00        3.98
  C04                  JUNCTION     2.60     4.08     5.48     0  06:00        4.08
  C05                  JUNCTION     2.69     4.18     5.48     0  06:00        4.18
  C06                  JUNCTION     2.78     4.27     5.47     0  06:00        4.27
  C07                  JUNCTION     2.87     4.37     5.47     0  06:00        4.37
  C08                  JUNCTION     2.96     4.46     5.46     0  06:00        4.46
  C09                  JUNCTION     3.05     4.56     5.46     0  06:00        4.56
  C10                  JUNCTION     3.14     4.65     5.45     0  06:00        4.65
  D00                  JUNCTION     2.28     3.70     5.40     0  06:00        3.70
  D01                  JUNCTION     2.37     3.80     5.40     0  06:00        3.80
  D02                  JUNCTION     2.46     3.90     5.40     0  06:00        3.90
  D03                  JUNCTION     2.55     4.00     5.40     0  06:00        4.00
  D04                  JUNCTION     2.64     4.10     5.40     0  06:00        4.10
  D05                  JUNCTION     2.73     4.20     5.40     0  06:00        4.20
  D06                  JUNCTION     2.82     4.29     5.39     0  06:00        4.29
  D07                  JUNCTION     2.91     4.39     5.39     0  06:00        4.39
  D08                  JUNCTION     3.00     4.49     5.39     0  06:00        4.49
  D09                  JUNCTION     3.09     4.58     5.38     0  06:00        4.58
  D10                  JUNCTION     3.18     4.67     5.37     0  06:00        4.67
  E00                  JUNCTION     2.27     3.66     5.26     0  06:00        3.66
  E01                  JUNCTION     2.36     3.76     5.26     0  06:00        3.76
  E02                  JUNCTION     2.45     3.86     5.26     0  06:00        3.86
  E03                  JUNCTION     2.54     3.96     5.26     0  06:00        3.96
  E04                  JUNCTION     2.63     4.06     5.26     0  06:00        4.06
  E05                  JUNCTION     2.72     4.16     5.26     0  06:00        4.16
  E06                  JUNCTION     2.81     4.25     5.25     0  06:00        4.25
  E07                  JUNCTION     2.90     4.35     5.25     0  06:00        4.35
  E08                  JUNCTION     2.99     4.44     5.24     0  06:00        4.44
  E09                  JUNCTION     3.09     4.54     5.24     0  06:00        4.54
  E10                  JUNCTION     3.18     4.63     5.23     0  06:00        4.63
  F00                  JUNCTION     2.21     3.54     5.04     0  06:00        3.54
  F01                  JUNCTION     2.31     3.64     5.04     0  06:00        3.64
  F02                  JUNCTION     2.40     3.74     5.04     0  06:00        3.74
  F03                  JUNCTION     2.49     3.84     5.04     0  06:00        3.84
  F04                  JUNCTION     2.58     3.94     5.04     0  06:00        3.94
  F05                  JUNCTION     2.67     4.04     5.04     0  06:00        4.04
  F06                  JUNCTION     2.76     4.13     5.03     0  06:00        4.13
  F07                  JUNCTION     2.85     4.23     5.03     0  06:00        4.23
  F08                  JUNCTION     2.94     4.32     5.02     0  06:00        4.32
  F09                  JUNCTION     3.03     4.42     5.02     0  06:00        4.42
  F10                  JUNCTION     3.12     4.51     5.01     0  06:00        4.51
  G00                  JUNCTION     2.09     3.32     4.72     0  06:00        3.32
  G01                  JUNCTION     2.18     3.42     4.72     0  06:00        3.42
  G02                  JUNCTION     2.27     3.52     4.72     0  06:00        3.52
  G03                  JUNCTION     2.36     3.62     4.72     0  06:00        3.62
  G04                  JUNCTION     2.45     3.72     4.72     0  06:00        3.72
  G05                  JUNCTION     2.54     3.82     4.72     0  06:00        3.82
  G06                  JUNCTION     2.63     3.91     4.71     0  06:00        3.91
  G07                  JUNCTION     2.73     4.01     4.71     0  06:00        4.01
  G08                  JUNCTION     2.82     4.11     4.71     0  06:00        4.11
  G09                  JUNCTION     2.91     4.20     4.70     0  06:00        4.20
  G10                  JUNCTION     3.00     4.29     4.69     0  06:00        4.29
  H00                  JUNCTION     1.89     2.99     4.29     0  06:00        2.99
  H01                  JUNCTION     1.98     3.09     4.29     0  06:00        3.09
  H02                  JUNCTION     2.07     3.19     4.29     0  06:00        3.19
  H03                  JUNCTION     2.16     3.28     4.28     0  06:00        3.28
  H04                  JUNCTION     2.25     3.38     4.28     0  06:00        3.38
  H05                  JUNCTION     2.34     3.48     4.28     0  06:00        3.48
  H06                  JUNCTION     2.43     3.58     4.28     0  06:00        3.58
  H07                  JUNCTION     2.52     3.67     4.27     0  06:00        3.67
  H08                  JUNCTION     2.61     3.77     4.27     0  06:00        3.77
  H09                  JUNCTION     2.70     3.86     4.26     0  06:00        3.86
  H10                  JUNCTION     2.80     3.96     4.26     0  06:00        3.96
  I00                  JUNCTION     1.59     2.51     3.71     0  06:00        2.51
  I01                  JUNCTION     1.68     2.61     3.71     0  06:00        2.61
  I02                  JUNCTION     1.77     2.71     3.71     0  06:00        2.71
  I03                  JUNCTION     1.86     2.81     3.71     0  06:00        2.81
  I04                  JUNCTION     1.95     2.91     3.71     0  06:00        2.91
  I05                  JUNCTION     2.04     3.01     3.71     0  06:00        3.01
  I06                  JUNCTION     2.13     3.10     3.70     0  06:00        3.10
  I07                  JUNCTION     2.22     3.20     3.70     0  06:00        3.20
  I08                  JUNCTION     2.32     3.30     3.70     0  06:00        3.30
  I09                  JUNCTION     2.41     3.39     3.69     0  06:00        3.39
  I10                  JUNCTION     2.50     3.48     3.68     0  06:00        3.48
  J00                  JUNCTION     1.18     1.87     2.97     0  06:00        1.87
  J01                  JUNCTION     1.27     1.97     2.97     0  06:00        1.97
  J02                  JUNCTION     1.36     2.07     2.97     0  06:00        2.07
  J03                  JUNCTION     1.45     2.17     2.97     0  06:00        2.17
  J04                  JUNCTION     1.54     2.27     2.97     0  06:00        2.27
  J05                  JUNCTION     1.63     2.37     2.97     0  06:00        2.37
  J06                  JUNCTION     1.72     2.47     2.97     0  06:00        2.47
  J07                  JUNCTION     1.82     2.56     2.96     0  06:00        2.56
  J08                  JUNCTION     1.91     2.66     2.96     0  06:00        2.66
  J09                  JUNCTION     2.00     2.75     2.95     0  06:00        2.75
  J10                  JUNCTION     2.09     2.84     2.94     0  06:00        2.84
  K00                  JUNCTION     0.66     1.04     2.04     0  06:00        1.04
  K01                  JUNCTION     0.74     1.14     2.04     0  06:00        1.14
  K02                  JUNCTION     0.83     1.24     2.04     0  06:00        1.24
  K03                  JUNCTION     0.92     1.34     2.04     0  06:00        1.34
  K04                  JUNCTION     1.01     1.44     2.04     0  06:00        1.44
  K05                  JUNCTION     1.10     1.54     2.04     0  06:00        1.54
  K06                  JUNCTION     1.19     1.64     2.04     0  06:00        1.64
  K07                  JUNCTION     1.28     1.73     2.03     0  06:00        1.73
  K08                  JUNCTION     1.37     1.83     2.03     0  06:00        1.83
  K09                  JUNCTION     1.46     1.92     2.02     0  06:00        1.92
  K10                  JUNCTION     1.56     2.02     2.02     0  06:00        2.02
  Outfall              OUTFALL      0.71     0.83     0.83     0  06:00        0.83
  
  
  *******************
  Node Inflow Summary
  *******************
  
  -------------------------------------------------------------------------------------------------
                                  Maximum  Maximum                  Lateral       Total        Flow
                                  Lateral    Total  Time of Max      Inflow      Inflow     Balance
                                   Inflow   Inflow   Occurrence      Volume      Volume       Error
  Node                 Type           CMS      CMS  days hr:min    10^6 ltr    10^6 ltr     Percent
  -------------------------------------------------------------------------------------------------
  A00                  JUNCTION     0.017    0.053     0  02:21       0.375       0.383      12.753
  A01                  JUNCTION     0.017    0.093     0  02:20       0.375       0.748      13.075
  A02                  JUNCTION     0.017    0.099     0  02:19       0.375        1.08       8.716
  A03                  JUNCTION     0.017    0.099     0  02:19       0.375         1.4       6.621
  A04                  JUNCTION     0.017    0.102     0  02:24       0.375        1.69       5.402
  A05                  JUNCTION     0.017    0.120     0  02:27       0.375        1.97       4.609
  A06                  JUNCTION     0.017    0.138     0  02:27       0.375        2.24       4.051
  A07                  JUNCTION     0.017    0.157     0  02:27       0.375        2.49       3.626
  A08                  JUNCTION     0.017    0.174     0  02:27       0.375        2.75       3.274
  A09                  JUNCTION     0.017    0.190     0  02:27       0.375        3.02       2.978
  A10                  JUNCTION     0.017    0.207     0  02:27       0.375         3.3       2.723
  B00                  JUNCTION     0.017    0.033     0  02:19       0.375       0.379      12.965
  B01                  JUNCTION     0.017    0.053     0  02:17       0.375       0.729      13.482
  B02                  JUNCTION     0.017    0.065     0  02:25       0.375        1.04       9.079
  B03                  JUNCTION     0.017    0.085     0  02:25       0.375        1.34       6.932
  B04                  JUNCTION     0.017    0.105     0  02:25       0.375        1.62       5.669
  B05                  JUNCTION     0.017    0.125     0  02:25       0.375        1.89       4.834
  B06                  JUNCTION     0.017    0.144     0  02:26       0.375        2.16       4.214
  B07                  JUNCTION     0.017    0.161     0  02:26       0.375        2.44       3.715
  B08                  JUNCTION     0.017    0.178     0  02:26       0.375        2.73       3.315
  B09                  JUNCTION     0.017    0.194     0  02:25       0.375        3.01       2.994
  B10                  JUNCTION     0.017    0.382     0  06:00       0.375        6.52       2.067
  C00                  JUNCTION     0.017    0.021     0  02:15       0.375       0.376      13.097
  C01                  JUNCTION     0.017    0.037     0  02:25       0.375       0.715      13.800
  C02                  JUNCTION     0.017    0.056     0  02:25       0.375        1.01       9.382
  C03                  JUNCTION     0.017    0.073     0  02:25       0.375         1.3       7.181
  C04                  JUNCTION     0.017    0.091     0  02:25       0.375        1.58       5.842
  C05                  JUNCTION     0.017    0.109     0  02:25       0.375        1.86       4.912
  C06                  JUNCTION     0.017    0.126     0  02:25       0.375        2.15       4.232
  C07                  JUNCTION     0.017    0.142     0  02:25       0.375        2.44       3.719
  C08                  JUNCTION     0.017    0.156     0  06:00       0.375        2.72       3.320
  C09                  JUNCTION     0.017    0.174     0  06:00       0.375        3.01       2.997
  C10                  JUNCTION     0.017    0.573     0  06:00       0.375        9.68       1.383
  D00                  JUNCTION     0.017    0.017     0  00:00       0.375       0.375      13.128
  D01                  JUNCTION     0.017    0.036     0  02:26       0.375       0.708      13.965
  D02                  JUNCTION     0.017    0.053     0  02:34       0.375       0.996       9.542
  D03                  JUNCTION     0.017    0.069     0  06:00       0.375        1.28       7.259
  D04                  JUNCTION     0.017    0.087     0  06:00       0.375        1.57       5.859
  D05                  JUNCTION     0.017    0.104     0  06:00       0.375        1.86       4.914
  D06                  JUNCTION     0.017    0.122     0  06:00       0.375        2.15       4.234
  D07                  JUNCTION     0.017    0.139     0  06:00       0.375        2.44       3.721
  D08                  JUNCTION     0.017    0.156     0  06:00       0.375        2.72       3.321
  D09                  JUNCTION     0.017    0.174     0  06:00       0.375        3.01       2.998
  D10                  JUNCTION     0.017    0.764     0  06:00       0.375        12.9       1.039
  E00                  JUNCTION     0.017    0.017     0  00:00       0.375       0.375      13.112
  E01                  JUNCTION     0.017    0.035     0  02:30       0.375       0.707      13.968
  E02                  JUNCTION     0.017    0.052     0  06:00       0.375       0.996       9.541
  E03                  JUNCTION     0.017    0.069     0  06:00       0.375        1.28       7.254
  E04                  JUNCTION     0.017    0.087     0  06:00       0.375        1.57       5.855
  E05                  JUNCTION     0.017    0.104     0  06:00       0.375        1.86       4.911
  E06                  JUNCTION     0.017    0.122     0  06:00       0.375        2.15       4.231
  E07                  JUNCTION     0.017    0.139     0  06:00       0.375        2.44       3.718
  E08                  JUNCTION     0.017    0.156     0  06:00       0.375        2.72       3.319
  E09                  JUNCTION     0.017    0.174     0  06:00       0.375        3.01       2.996
  E10                  JUNCTION     0.017    0.956     0  06:00       0.375          16       0.832
  F00                  JUNCTION     0.017    0.017     0  00:00       0.375       0.375      13.065
  F01                  JUNCTION     0.017    0.035     0  02:33       0.375       0.707      13.940
  F02                  JUNCTION     0.017    0.052     0  06:00       0.375       0.996       9.522
  F03                  JUNCTION     0.017    0.069     0  06:00       0.375        1.28       7.239
  F04                  JUNCTION     0.017    0.087     0  06:00       0.375        1.57       5.843
  F05                  JUNCTION     0.017    0.104     0  06:00       0.375        1.86       4.901
  F06                  JUNCTION     0.017    0.122     0  06:00       0.375        2.15       4.222
  F07                  JUNCTION     0.017    0.139     0  06:00       0.375        2.44       3.710
  F08                  JUNCTION     0.017    0.156     0  06:00       0.375        2.73       3.312
  F09                  JUNCTION     0.017    0.174     0  06:00       0.375        3.01       2.990
  F10                  JUNCTION     0.017    1.147     0  06:00       0.375        19.2       0.692
  G00                  JUNCTION     0.017    0.017     0  00:00       0.375       0.375      12.978
  G01                  JUNCTION     0.017    0.036     0  02:33       0.375       0.707      13.887
  G02                  JUNCTION     0.017    0.054     0  02:33       0.375       0.996       9.486
  G03                  JUNCTION     0.017    0.070     0  02:33       0.375        1.29       7.212
  G04                  JUNCTION     0.017    0.087     0  06:00       0.375        1.57       5.821
  G05                  JUNCTION     0.017    0.104     0  06:00       0.375        1.86       4.882
  G06                  JUNCTION     0.017    0.122     0  06:00       0.375        2.15       4.206
  G07                  JUNCTION     0.017    0.139     0  06:00       0.375        2.44       3.696
  G08                  JUNCTION     0.017    0.156     0  06:00       0.375        2.73       3.300
  G09                  JUNCTION     0.017    0.174     0  06:00       0.375        3.02       2.978
  G10                  JUNCTION     0.017    1.338     0  06:00       0.375        22.4       0.592
  H00                  JUNCTION     0.017    0.017     0  00:00       0.375       0.375      12.845
  H01                  JUNCTION     0.017    0.036     0  02:26       0.375       0.708      13.806
  H02                  JUNCTION     0.017    0.055     0  02:26       0.375       0.997       9.431
  H03                  JUNCTION     0.017    0.072     0  02:26       0.375        1.29       7.170
  H04                  JUNCTION     0.017    0.089     0  02:26       0.375        1.58       5.787
  H05                  JUNCTION     0.017    0.106     0  02:26       0.375        1.86       4.854
  H06                  JUNCTION     0.017    0.122     0  06:00       0.375        2.15       4.182
  H07                  JUNCTION     0.017    0.139     0  06:00       0.375        2.44       3.675
  H08                  JUNCTION     0.017    0.156     0  06:00       0.375        2.73       3.280
  H09                  JUNCTION     0.017    0.174     0  06:00       0.375        3.02       2.961
  H10                  JUNCTION     0.017    1.529     0  06:00       0.375        25.5       0.516
  I00                  JUNCTION     0.017    0.017     0  00:00       0.375       0.375      12.656
  I01                  JUNCTION     0.017    0.038     0  02:28       0.375       0.708      13.693
  I02                  JUNCTION     0.017    0.059     0  02:28       0.375       0.998       9.353
  I03                  JUNCTION     0.017    0.077     0  02:28       0.375        1.29       7.111
  I04                  JUNCTION     0.017    0.095     0  02:28       0.375        1.58       5.739
  I05                  JUNCTION     0.017    0.112     0  02:28       0.375        1.87       4.814
  I06                  JUNCTION     0.017    0.129     0  02:28       0.375        2.16       4.147
  I07                  JUNCTION     0.017    0.145     0  02:28       0.375        2.45       3.644
  I08                  JUNCTION     0.017    0.163     0  02:28       0.375        2.74       3.253
  I09                  JUNCTION     0.017    0.181     0  02:28       0.375        3.02       2.936
  I10                  JUNCTION     0.017    1.720     0  06:00       0.375        28.7       0.456
  J00                  JUNCTION     0.017    0.063     0  02:28       0.375       0.382      12.163
  J01                  JUNCTION     0.017    0.111     0  02:28       0.375       0.736      12.970
  J02                  JUNCTION     0.017    0.123     0  02:28       0.375        1.05       8.789
  J03                  JUNCTION     0.017    0.122     0  02:28       0.375        1.34       6.730
  J04                  JUNCTION     0.017    0.119     0  02:32       0.375        1.63       5.488
  J05                  JUNCTION     0.017    0.136     0  02:32       0.375        1.92       4.645
  J06                  JUNCTION     0.017    0.152     0  02:31       0.375         2.2       4.031
  J07                  JUNCTION     0.017    0.171     0  02:31       0.375        2.48       3.562
  J08                  JUNCTION     0.017    0.190     0  02:31       0.375        2.76       3.194
  J09                  JUNCTION     0.017    0.209     0  02:31       0.375        3.04       2.892
  J10                  JUNCTION     0.017    1.911     0  06:00       0.375        31.9       0.409
  K00                  JUNCTION     0.017    0.066     0  02:35       0.375       0.386      11.212
  K01                  JUNCTION     0.017    0.133     0  02:34       0.375       0.763      11.853
  K02                  JUNCTION     0.017    0.168     0  02:34       0.375        1.11       7.974
  K03                  JUNCTION     0.017    0.186     0  02:33       0.375        1.44       6.111
  K04                  JUNCTION     0.017    0.195     0  02:33       0.375        1.75       5.005
  K05                  JUNCTION     0.017    0.189     0  02:32       0.375        2.05       4.277
  K06                  JUNCTION     0.017    0.175     0  02:32       0.375        2.33       3.753
  K07                  JUNCTION     0.017    0.165     0  02:32       0.375         2.6       3.354
  K08                  JUNCTION     0.017    0.156     0  06:00       0.375        2.87       3.035
  K09                  JUNCTION     0.017    0.174     0  06:00       0.375        3.14       2.770
  K10                  JUNCTION     0.017    2.102     0  06:00       0.375        35.2       0.379
  Outfall              OUTFALL      0.000    2.102     0  06:00           0          35       0.000
  
  
  **********************
  Node Surcharge Summary
  **********************
  
  Surcharging occurs when water rises above the top of the highest conduit.
  ---------------------------------------------------------------------
                                               Max. Height   Min. Depth
                                   Hours       Above Crown    Below Rim
  Node                 Type      Surcharged         Meters       Meters
  ---------------------------------------------------------------------
  A00                  JUNCTION        3.64          2.523        6.477
  A01                  JUNCTION        3.65          2.623        6.377
  A02                  JUNCTION        3.67          2.723        6.277
  A03                  JUNCTION        3.70          2.822        6.178
  A04                  JUNCTION        3.75          2.921        6.079
  A05                  JUNCTION        3.82          3.019        5.981
  A06                  JUNCTION        3.92          3.116        5.884
  A07                  JUNCTION        4.04          3.213        5.787
  A08                  JUNCTION        4.18          3.308        5.692
  A09                  JUNCTION        4.34          3.402        5.598
  A10                  JUNCTION        4.53          3.495        5.505
  B00                  JUNCTION        3.66          2.614        6.386
  B01                  JUNCTION        3.68          2.714        6.286
  B02                  JUNCTION        3.71          2.814        6.186
  B03                  JUNCTION        3.76          2.913        6.087
  B04                  JUNCTION        3.83          3.012        5.988
  B05                  JUNCTION        3.92          3.110        5.890
  B06                  JUNCTION        4.04          3.208        5.792
  B07                  JUNCTION        4.18          3.304        5.696
  B08                  JUNCTION        4.34          3.399        5.601
  B09                  JUNCTION        4.53          3.493        5.507
  B10                  JUNCTION        4.72          3.586        5.414
  C00                  JUNCTION        3.68          2.679        6.321
  C01                  JUNCTION        3.72          2.779        6.221
  C02                  JUNCTION        3.76          2.879        6.121
  C03                  JUNCTION        3.83          2.978        6.022
  C04                  JUNCTION        3.92          3.077        5.923
  C05                  JUNCTION        4.03          3.175        5.825
  C06                  JUNCTION        4.17          3.272        5.728
  C07                  JUNCTION        4.34          3.369        5.631
  C08                  JUNCTION        4.51          3.464        5.536
  C09                  JUNCTION        4.70          3.558        5.442
  C10                  JUNCTION        4.89          3.651        5.349
  D00                  JUNCTION        3.71          2.700        6.300
  D01                  JUNCTION        3.76          2.800        6.200
  D02                  JUNCTION        3.83          2.900        6.100
  D03                  JUNCTION        3.91          2.999        6.001
  D04                  JUNCTION        4.02          3.098        5.902
  D05                  JUNCTION        4.16          3.196        5.804
  D06                  JUNCTION        4.31          3.293        5.707
  D07                  JUNCTION        4.48          3.390        5.610
  D08                  JUNCTION        4.66          3.485        5.515
  D09                  JUNCTION        4.85          3.579        5.421
  D10                  JUNCTION        5.03          3.672        5.328
  E00                  JUNCTION        3.75          2.659        6.341
  E01                  JUNCTION        3.81          2.759        6.241
  E02                  JUNCTION        3.89          2.859        6.141
  E03                  JUNCTION        3.99          2.958        6.042
  E04                  JUNCTION        4.12          3.057        5.943
  E05                  JUNCTION        4.27          3.155        5.845
  E06                  JUNCTION        4.43          3.253        5.747
  E07                  JUNCTION        4.61          3.349        5.651
  E08                  JUNCTION        4.78          3.444        5.556
  E09                  JUNCTION        4.97          3.539        5.461
  E10                  JUNCTION        5.14          3.631        5.369
  F00                  JUNCTION        3.77          2.539        6.461
  F01                  JUNCTION        3.84          2.639        6.361
  F02                  JUNCTION        3.93          2.739        6.261
  F03                  JUNCTION        4.05          2.838        6.162
  F04                  JUNCTION        4.19          2.937        6.063
  F05                  JUNCTION        4.35          3.035        5.965
  F06                  JUNCTION        4.52          3.133        5.867
  F07                  JUNCTION        4.70          3.229        5.771
  F08                  JUNCTION        4.87          3.324        5.676
  F09                  JUNCTION        5.05          3.418        5.582
  F10                  JUNCTION        5.20          3.511        5.489
  G00                  JUNCTION        3.76          2.321        6.679
  G01                  JUNCTION        3.84          2.421        6.579
  G02                  JUNCTION        3.94          2.521        6.479
  G03                  JUNCTION        4.07          2.620        6.380
  G04                  JUNCTION        4.22          2.719        6.281
  G05                  JUNCTION        4.39          2.817        6.183
  G06                  JUNCTION        4.56          2.915        6.085
  G07                  JUNCTION        4.74          3.011        5.989
  G08                  JUNCTION        4.92          3.106        5.894
  G09                  JUNCTION        5.09          3.200        5.800
  G10                  JUNCTION        5.24          3.293        5.707
  H00                  JUNCTION        3.70          1.985        7.015
  H01                  JUNCTION        3.77          2.085        6.915
  H02                  JUNCTION        3.87          2.185        6.815
  H03                  JUNCTION        4.01          2.284        6.716
  H04                  JUNCTION        4.17          2.383        6.617
  H05                  JUNCTION        4.36          2.481        6.519
  H06                  JUNCTION        4.55          2.579        6.421
  H07                  JUNCTION        4.74          2.675        6.325
  H08                  JUNCTION        4.93          2.770        6.230
  H09                  JUNCTION        5.11          2.864        6.136
  H10                  JUNCTION        5.25          2.957        6.043
  I00                  JUNCTION        3.60          1.510        7.490
  I01                  JUNCTION        3.65          1.610        7.390
  I02                  JUNCTION        3.71          1.710        7.290
  I03                  JUNCTION        3.83          1.809        7.191
  I04                  JUNCTION        4.00          1.908        7.092
  I05                  JUNCTION        4.21          2.006        6.994
  I06                  JUNCTION        4.44          2.104        6.896
  I07                  JUNCTION        4.67          2.200        6.800
  I08                  JUNCTION        4.89          2.295        6.705
  I09                  JUNCTION        5.09          2.389        6.611
  I10                  JUNCTION        5.25          2.481        6.519
  J00                  JUNCTION        3.51          0.873        8.127
  J01                  JUNCTION        3.52          0.973        8.027
  J02                  JUNCTION        3.54          1.072        7.928
  J03                  JUNCTION        3.57          1.172        7.828
  J04                  JUNCTION        3.65          1.270        7.730
  J05                  JUNCTION        3.82          1.368        7.632
  J06                  JUNCTION        4.08          1.466        7.534
  J07                  JUNCTION        4.40          1.562        7.438
  J08                  JUNCTION        4.71          1.657        7.343
  J09                  JUNCTION        4.99          1.751        7.249
  J10                  JUNCTION        5.20          1.843        7.157
  K00                  JUNCTION        3.12          0.045        8.955
  K01                  JUNCTION        3.29          0.145        8.855
  K02                  JUNCTION        3.33          0.244        8.756
  K03                  JUNCTION        3.38          0.344        8.656
  K04                  JUNCTION        3.40          0.443        8.557
  K05                  JUNCTION        3.46          0.541        8.459
  K06                  JUNCTION        3.51          0.638        8.362
  K07                  JUNCTION        3.61          0.734        8.266
  K08                  JUNCTION        3.92          0.829        8.171
  K09                  JUNCTION        4.47          0.923        8.077
  K10                  JUNCTION        4.96          1.015        7.985
  
  
  *********************
  Node Flooding Summary
  *********************
  
  No nodes were flooded.
  
  
  ***********************
  Outfall Loading Summary
  ***********************
  
  -----------------------------------------------------------
                         Flow       Avg       Max       Total
                         Freq      Flow      Flow      Volume
  Outfall Node           Pcnt       CMS       CMS    10^6 ltr
  -----------------------------------------------------------
  Outfall               99.90     1.622     2.102      34.986
  -----------------------------------------------------------
  System                99.90     1.622     2.102      34.986
  
  
  ********************
  Link Flow Summary
  ********************
  
  -----------------------------------------------------------------------------
                                 Maximum  Time of Max   Maximum    Max/    Max/
                                  |Flow|   Occurrence   |Veloc|    Full    Full
  Link                 Type          CMS  days hr:min     m/sec    Flow   Depth
  -----------------------------------------------------------------------------
  100                  CONDUIT     0.122     0  06:00      0.56    0.20    1.00
  101                  CONDUIT     0.139     0  06:00      0.55    0.23    1.00
  102                  CONDUIT     0.156     0  06:00      0.49    0.25    1.00
  103                  CONDUIT     0.174     0  06:00      0.39    0.28    1.00
  121                  CONDUIT     0.035     0  02:21      0.34    0.06    1.00
  122                  CONDUIT     0.075     0  02:20      0.38    0.12    1.00
  123                  CONDUIT     0.082     0  02:19      0.43    0.13    1.00
  124                  CONDUIT     0.085     0  02:24      0.48    0.14    1.00
  125                  CONDUIT     0.102     0  02:27      0.51    0.17    1.00
  126                  CONDUIT     0.121     0  02:27      0.54    0.20    1.00
  127                  CONDUIT     0.139     0  02:27      0.57    0.23    1.00
  128                  CONDUIT     0.156     0  02:27      0.59    0.25    1.00
  129                  CONDUIT     0.173     0  02:27      0.59    0.28    1.00
  130                  CONDUIT     0.190     0  02:27      0.54    0.31    1.00
  131                  CONDUIT     0.025     0  02:25      0.34    0.04    1.00
  132                  CONDUIT     0.048     0  02:25      0.38    0.08    1.00
  133                  CONDUIT     0.068     0  02:25      0.43    0.11    1.00
  134                  CONDUIT     0.088     0  02:25      0.48    0.14    1.00
  135                  CONDUIT     0.107     0  02:25      0.51    0.17    1.00
  136                  CONDUIT     0.126     0  02:26      0.54    0.21    1.00
  137                  CONDUIT     0.144     0  02:26      0.57    0.23    1.00
  138                  CONDUIT     0.160     0  02:26      0.58    0.26    1.00
  139                  CONDUIT     0.177     0  02:25      0.53    0.29    1.00
  140                  CONDUIT     0.193     0  02:25      0.40    0.31    1.00
  141                  CONDUIT     0.020     0  02:25      0.34    0.03    1.00
  142                  CONDUIT     0.038     0  02:25      0.38    0.06    1.00
  143                  CONDUIT     0.056     0  02:25      0.43    0.09    1.00
  144                  CONDUIT     0.074     0  02:25      0.48    0.12    1.00
  145                  CONDUIT     0.091     0  02:25      0.51    0.15    1.00
  146                  CONDUIT     0.108     0  02:25      0.54    0.18    1.00
  147                  CONDUIT     0.125     0  02:25      0.57    0.20    1.00
  148                  CONDUIT     0.139     0  06:00      0.56    0.23    1.00
  149                  CONDUIT     0.156     0  06:00      0.50    0.25    1.00
  150                  CONDUIT     0.174     0  06:00      0.38    0.28    1.00
  151                  CONDUIT     0.018     0  02:26      0.34    0.03    1.00
  152                  CONDUIT     0.035     0  02:34      0.38    0.06    1.00
  153                  CONDUIT     0.052     0  06:00      0.43    0.08    1.00
  154                  CONDUIT     0.069     0  06:00      0.48    0.11    1.00
  155                  CONDUIT     0.087     0  06:00      0.51    0.14    1.00
  156                  CONDUIT     0.104     0  06:00      0.54    0.17    1.00
  157                  CONDUIT     0.122     0  06:00      0.56    0.20    1.00
  158                  CONDUIT     0.139     0  06:00      0.56    0.23    1.00
  159                  CONDUIT     0.156     0  06:00      0.49    0.25    1.00
  160                  CONDUIT     0.174     0  06:00      0.39    0.28    1.00
  161                  CONDUIT     0.018     0  02:30      0.34    0.03    1.00
  162                  CONDUIT     0.035     0  06:00      0.38    0.06    1.00
  163                  CONDUIT     0.052     0  06:00      0.43    0.08    1.00
  164                  CONDUIT     0.069     0  06:00      0.48    0.11    1.00
  165                  CONDUIT     0.087     0  06:00      0.51    0.14    1.00
  166                  CONDUIT     0.104     0  06:00      0.54    0.17    1.00
  171                  CONDUIT     0.018     0  02:33      0.34    0.03    1.00
  172                  CONDUIT     0.035     0  06:00      0.38    0.06    1.00
  173                  CONDUIT     0.052     0  06:00      0.43    0.08    1.00
  174                  CONDUIT     0.069     0  06:00      0.48    0.11    1.00
  175                  CONDUIT     0.087     0  06:00      0.51    0.14    1.00
  176                  CONDUIT     0.104     0  06:00      0.54    0.17    1.00
  177                  CONDUIT     0.122     0  06:00      0.56    0.20    1.00
  178                  CONDUIT     0.139     0  06:00      0.55    0.23    1.00
  179                  CONDUIT     0.156     0  06:00      0.49    0.25    1.00
  180                  CONDUIT     0.174     0  06:00      0.39    0.28    1.00
  181                  CONDUIT     0.018     0  02:33      0.34    0.03    1.00
  182                  CONDUIT     0.036     0  02:33      0.38    0.06    1.00
  183                  CONDUIT     0.053     0  02:33      0.43    0.09    1.00
  184                  CONDUIT     0.069     0  06:00      0.48    0.11    1.00
  185                  CONDUIT     0.087     0  06:00      0.51    0.14    1.00
  186                  CONDUIT     0.104     0  06:00      0.54    0.17    1.00
  187                  CONDUIT     0.122     0  06:00      0.56    0.20    1.00
  188                  CONDUIT     0.139     0  06:00      0.55    0.23    1.00
  189                  CONDUIT     0.156     0  06:00      0.49    0.25    1.00
  190                  CONDUIT     0.174     0  06:00      0.39    0.28    1.00
  191                  CONDUIT     0.019     0  02:26      0.34    0.03    1.00
  192                  CONDUIT     0.037     0  02:26      0.38    0.06    1.00
  193                  CONDUIT     0.055     0  02:26      0.43    0.09    1.00
  194                  CONDUIT     0.072     0  02:26      0.48    0.12    1.00
  195                  CONDUIT     0.088     0  02:26      0.51    0.14    1.00
  196                  CONDUIT     0.104     0  06:00      0.54    0.17    1.00
  197                  CONDUIT     0.122     0  06:00      0.56    0.20    1.00
  198                  CONDUIT     0.139     0  06:00      0.55    0.23    1.00
  199                  CONDUIT     0.156     0  06:00      0.49    0.25    1.00
  200                  CONDUIT     0.174     0  06:00      0.39    0.28    1.00
  201                  CONDUIT     0.021     0  02:28      0.34    0.03    1.00
  202                  CONDUIT     0.041     0  02:28      0.38    0.07    1.00
  203                  CONDUIT     0.060     0  02:28      0.43    0.10    1.00
  204                  CONDUIT     0.078     0  02:28      0.48    0.13    1.00
  205                  CONDUIT     0.095     0  02:28      0.51    0.15    1.00
  206                  CONDUIT     0.111     0  02:28      0.54    0.18    1.00
  207                  CONDUIT     0.128     0  02:28      0.56    0.21    1.00
  208                  CONDUIT     0.146     0  02:28      0.55    0.24    1.00
  209                  CONDUIT     0.163     0  02:28      0.49    0.27    1.00
  210                  CONDUIT     0.180     0  02:28      0.39    0.29    1.00
  211                  CONDUIT     0.045     0  02:28      0.34    0.07    1.00
  212                  CONDUIT     0.093     0  02:28      0.38    0.15    1.00
  213                  CONDUIT     0.106     0  02:28      0.43    0.17    1.00
  214                  CONDUIT     0.104     0  02:28      0.48    0.17    1.00
  215                  CONDUIT     0.118     0  02:32      0.51    0.19    1.00
  216                  CONDUIT     0.134     0  02:31      0.54    0.22    1.00
  217                  CONDUIT     0.154     0  02:31      0.56    0.25    1.00
  218                  CONDUIT     0.173     0  02:31      0.55    0.28    1.00
  219                  CONDUIT     0.192     0  02:31      0.49    0.31    1.00
  220                  CONDUIT     0.210     0  02:31      0.39    0.34    1.00
  221                  CONDUIT     0.049     0  02:35      0.34    0.08    1.00
  222                  CONDUIT     0.116     0  02:34      0.38    0.19    1.00
  223                  CONDUIT     0.151     0  02:34      0.43    0.24    1.00
  224                  CONDUIT     0.168     0  02:33      0.48    0.27    1.00
  225                  CONDUIT     0.178     0  02:33      0.51    0.29    1.00
  226                  CONDUIT     0.171     0  02:32      0.54    0.28    1.00
  227                  CONDUIT     0.158     0  02:32      0.56    0.26    1.00
  228                  CONDUIT     0.147     0  02:32      0.53    0.24    1.00
  229                  CONDUIT     0.156     0  06:00      0.46    0.25    1.00
  230                  CONDUIT     0.174     0  06:00      0.34    0.28    1.00
  231                  CONDUIT     0.205     0  02:27      0.40    0.33    1.00
  232                  CONDUIT     0.382     0  06:00      0.56    0.62    1.00
  233                  CONDUIT     0.573     0  06:00      0.73    0.93    1.00
  234                  CONDUIT     0.764     0  06:00      0.97    1.24    1.00
  235                  CONDUIT     0.956     0  06:00      1.22    1.55    1.00
  236                  CONDUIT     1.147     0  06:00      1.46    1.86    1.00
  237                  CONDUIT     1.338     0  06:00      1.70    2.17    1.00
  238                  CONDUIT     1.529     0  06:00      1.95    2.48    1.00
  239                  CONDUIT     1.720     0  06:00      2.19    2.79    1.00
  240                  CONDUIT     1.911     0  06:00      2.43    3.10    1.00
  241                  CONDUIT     2.102     0  06:00      2.68   61.81    1.00
  
  
  ***************************
  Flow Classification Summary
  ***************************
  
  -------------------------------------------------------------------------------------
                      Adjusted    ---------- Fraction of Time in Flow Class ---------- 
                       /Actual         Up    Down  Sub   Sup   Up    Down  Norm  Inlet 
  Conduit               Length    Dry  Dry   Dry   Crit  Crit  Crit  Crit  Ltd   Ctrl  
  -------------------------------------------------------------------------------------
  100                     1.00   0.00  0.00  0.00  1.00  0.00  0.00  0.00  0.00  0.00
  101                     1.00   0.00  0.00  0.00  1.00  0.00  0.00  0.00  0.00  0.00
  102                     1.00   0.00  0.00  0.00  1.00  0.00  0.00  0.00  0.00  0.00
  103                     1.00   0.00  0.00  0.00  1.00  0.00  0.00  0.00  0.01  0.00
  121                     1.00   0.00  0.00  0.00  1.00  0.00  0.00  0.00  0.26  0.00
  122                     1.00   0.00  0.00  0.00  1.00  0.00  0.00  0.00  0.21  0.00
  123                     1.00   0.00  0.00  0.00  1.00  0.00  0.00  0.00  0.03  0.00
  124                     1.00   0.00  0.00  0.00  1.00  0.00  0.00  0.00  0.01  0.00
  125                     1.00   0.00  0.00  0.00  1.00  0.00  0.00  0.00  0.00  0.00
  126                     1.00   0.00  0.00  0.00  1.00  0.00  0.00  0.00  0.00  0.00
  127                     1.00   0.00  0.00  0.00  1.00  0.00  0.00  0.00  0.00  0.00
  128                     1.00   0.00  0.00  0.00  1.00  0.00  0.00  0.00  0.00  0.00
  129                     1.00   0.00  0.00  0.00  1.00  0.00  0.00  0.00  0.00  0.00
  130                     1.00   0.00  0.00  0.00  1.00  0.00  0.00  0.00  0.00  0.00
  131                     1.00   0.00  0.00  0.00  1.00  0.00  0.00  0.00  0.23  0.00
  132                     1.00   0.00  0.00  0.00  1.00  0.00  0.00  0.00  0.18  0.00
  133                     1.00   0.00  0.00  0.00  1.00  0.00  0.00  0.00  0.03  0.00
  134                     1.00   0.00  0.00  0.00  1.00  0.00  0.00  0.00  0.01  0.00
  135                     1.00   0.00  0.00  0.00  1.00  0.00  0.00  0.00  0.00  0.00
  136                     1.00   0.00  0.00  0.00  1.00  0.00  0.00  0.00  0.00  0.00
  137                     1.00   0.00  0.00  0.00  1.00  0.00  0.00  0.00  0.00  0.00
  138                     1.00   0.00  0.00  0.00  1.00  0.00  0.00  0.00  0.00  0.00
  139                     1.00   0.00  0.00  0.00  1.00  0.00  0.00  0.00  0.00  0.00
  140                     1.00   0.00  0.00  0.00  1.00  0.00  0.00  0.00  0.01  0.00
  141                     1.00   0.00  0.00  0.00  1.00  0.00  0.00  0.00  0.20  0.00
  142                     1.00   0.00  0.00  0.00  1.00  0.00  0.00  0.00  0.16  0.00
  143                     1.00   0.00  0.00  0.00  1.00  0.00  0.00  0.00  0.03  0.00
  144                     1.00   0.00  0.00  0.00  1.00  0.00  0.00  0.00  0.01  0.00
  145                     1.00   0.00  0.00  0.00  1.00  0.00  0.00  0.00  0.00  0.00
  146                     1.00   0.00  0.00  0.00  1.00  0.00  0.00  0.00  0.00  0.00
  147                     1.00   0.00  0.00  0.00  1.00  0.00  0.00  0.00  0.00  0.00
  148                     1.00   0.00  0.00  0.00  1.00  0.00  0.00  0.00  0.00  0.00
  149                     1.00   0.00  0.00  0.00  1.00  0.00  0.00  0.00  0.00  0.00
  150                     1.00   0.00  0.00  0.00  1.00  0.00  0.00  0.00  0.01  0.00
  151                     1.00   0.00  0.00  0.00  1.00  0.00  0.00  0.00  0.17  0.00
  152                     1.00   0.00  0.00  0.00  1.00  0.00  0.00  0.00  0.14  0.00
  153                     1.00   0.00  0.00  0.00  1.00  0.00  0.00  0.00  0.03  0.00
  154                     1.00   0.00  0.00  0.00  1.00  0.00  0.00  0.00  0.01  0.00
  155                     1.00   0.00  0.00  0.00  1.00  0.00  0.00  0.00  0.00  0.00
  156                     1.00   0.00  0.00  0.00  1.00  0.00  0.00  0.00  0.00  0.00
  157                     1.00   0.00  0.00  0.00  1.00  0.00  0.00  0.00  0.00  0.00
  158                     1.00   0.00  0.00  0.00  1.00  0.00  0.00  0.00  0.00  0.00
  159                     1.00   0.00  0.00  0.00  1.00  0.00  0.00  0.00  0.00  0.00
  160                     1.00   0.00  0.00  0.00  1.00  0.00  0.00  0.00  0.01  0.00
  161                     1.00   0.00  0.00  0.00  1.00  0.00  0.00  0.00  0.15  0.00
  162                     1.00   0.00  0.00  0.00  1.00  0.00  0.00  0.00  0.12  0.00
  163                     1.00   0.00  0.00  0.00  1.00  0.00  0.00  0.00  0.03  0.00
  164                     1.00   0.00  0.00  0.00  1.00  0.00  0.00  0.00  0.01  0.00
  165                     1.00   0.00  0.00  0.00  1.00  0.00  0.00  0.00  0.00  0.00
  166                     1.00   0.00  0.00  0.00  1.00  0.00  0.00  0.00  0.00  0.00
  171                     1.00   0.00  0.00  0.00  1.00  0.00  0.00  0.00  0.14  0.00
  172                     1.00   0.00  0.00  0.00  1.00  0.00  0.00  0.00  0.11  0.00
  173                     1.00   0.00  0.00  0.00  1.00  0.00  0.00  0.00  0.03  0.00
  174                     1.00   0.00  0.00  0.00  1.00  0.00  0.00  0.00  0.01  0.00
  175                     1.00   0.00  0.00  0.00  1.00  0.00  0.00  0.00  0.00  0.00
  176                     1.00   0.00  0.00  0.00  1.00  0.00  0.00  0.00  0.00  0.00
  177                     1.00   0.00  0.00  0.00  1.00  0.00  0.00  0.00  0.00  0.00
  178                     1.00   0.00  0.00  0.00  1.00  0.00  0.00  0.00  0.00  0.00
  179                     1.00   0.00  0.00  0.00  1.00  0.00  0.00  0.00  0.00  0.00
  180                     1.00   0.00  0.00  0.00  1.00  0.00  0.00  0.00  0.01  0.00
  181                     1.00   0.00  0.00  0.00  1.00  0.00  0.00  0.00  0.14  0.00
  182                     1.00   0.00  0.00  0.00  1.00  0.00  0.00  0.00  0.11  0.00
  183                     1.00   0.00  0.00  0.00  1.00  0.00  0.00  0.00  0.03  0.00
  184                     1.00   0.00  0.00  0.00  1.00  0.00  0.00  0.00  0.01  0.00
  185                     1.00   0.00  0.00  0.00  1.00  0.00  0.00  0.00  0.00  0.00
  186                     1.00   0.00  0.00  0.00  1.00  0.00  0.00  0.00  0.00  0.00
  187                     1.00   0.00  0.00  0.00  1.00  0.00  0.00  0.00  0.00  0.00
  188                     1.00   0.00  0.00  0.00  1.00  0.00  0.00  0.00  0.00  0.00
  189                     1.00   0.00  0.00  0.00  1.00  0.00  0.00  0.00  0.00  0.00
  190                     1.00   0.00  0.00  0.00  1.00  0.00  0.00  0.00  0.01  0.00
  191                     1.00   0.00  0.00  0.00  1.00  0.00  0.00  0.00  0.13  0.00
  192                     1.00   0.00  0.00  0.00  1.00  0.00  0.00  0.00  0.11  0.00
  193                     1.00   0.00  0.00  0.00  1.00  0.00  0.00  0.00  0.03  0.00
  194                     1.00   0.00  0.00  0.00  1.00  0.00  0.00  0.00  0.01  0.00
  195                     1.00   0.00  0.00  0.00  1.00  0.00  0.00  0.00  0.00  0.00
  196                     1.00   0.00  0.00  0.00  1.00  0.00  0.00  0.00  0.00  0.00
  197                     1.00   0.00  0.00  0.00  1.00  0.00  0.00  0.00  0.00  0.00
  198                     1.00   0.00  0.00  0.00  1.00  0.00  0.00  0.00  0.00  0.00
  199                     1.00   0.00  0.00  0.00  1.00  0.00  0.00  0.00  0.00  0.00
  200                     1.00   0.00  0.00  0.00  1.00  0.00  0.00  0.00  0.01  0.00
  201                     1.00   0.00  0.00  0.00  1.00  0.00  0.00  0.00  0.14  0.00
  202                     1.00   0.00  0.00  0.00  1.00  0.00  0.00  0.00  0.10  0.00
  203                     1.00   0.00  0.00  0.00  1.00  0.00  0.00  0.00  0.03  0.00
  204                     1.00   0.00  0.00  0.00  1.00  0.00  0.00  0.00  0.01  0.00
  205                     1.00   0.00  0.00  0.00  1.00  0.00  0.00  0.00  0.00  0.00
  206                     1.00   0.00  0.00  0.00  1.00  0.00  0.00  0.00  0.00  0.00
  207                     1.00   0.00  0.00  0.00  1.00  0.00  0.00  0.00  0.00  0.00
  208                     1.00   0.00  0.00  0.00  1.00  0.00  0.00  0.00  0.00  0.00
  209                     1.00   0.00  0.00  0.00  1.00  0.00  0.00  0.00  0.00  0.00
  210                     1.00   0.00  0.00  0.00  1.00  0.00  0.00  0.00  0.01  0.00
  211                     1.00   0.00  0.00  0.00  1.00  0.00  0.00  0.00  0.15  0.00
  212                     1.00   0.00  0.00  0.00  1.00  0.00  0.00  0.00  0.11  0.00
  213                     1.00   0.00  0.00  0.00  1.00  0.00  0.00  0.00  0.03  0.00
  214                     1.00   0.00  0.00  0.00  1.00  0.00  0.00  0.00  0.01  0.00
  215                     1.00   0.00  0.00  0.00  1.00  0.00  0.00  0.00  0.00  0.00
  216                     1.00   0.00  0.00  0.00  1.00  0.00  0.00  0.00  0.00  0.00
  217                     1.00   0.00  0.00  0.00  1.00  0.00  0.00  0.00  0.00  0.00
  218                     1.00   0.00  0.00  0.00  1.00  0.00  0.00  0.00  0.00  0.00
  219                     1.00   0.00  0.00  0.00  1.00  0.00  0.00  0.00  0.00  0.00
  220                     1.00   0.00  0.00  0.00  1.00  0.00  0.00  0.00  0.01  0.00
  221                     1.00   0.00  0.00  0.00  1.00  0.00  0.00  0.00  0.19  0.00
  222                     1.00   0.00  0.00  0.00  1.00  0.00  0.00  0.00  0.11  0.00
  223                     1.00   0.00  0.00  0.00  1.00  0.00  0.00  0.00  0.03  0.00
  224                     1.00   0.00  0.00  0.00  1.00  0.00  0.00  0.00  0.01  0.00
  225                     1.00   0.00  0.00  0.00  1.00  0.00  0.00  0.00  0.00  0.00
  226                     1.00   0.00  0.00  0.00  1.00  0.00  0.00  0.00  0.00  0.00
  227                     1.00   0.00  0.00  0.00  1.00  0.00  0.00  0.00  0.00  0.00
  228                     1.00   0.00  0.00  0.00  1.00  0.00  0.00  0.00  0.00  0.00
  229                     1.00   0.00  0.00  0.00  1.00  0.00  0.00  0.00  0.00  0.00
  230                     1.00   0.00  0.00  0.00  1.00  0.00  0.00  0.00  0.01  0.00
  231                     1.00   0.00  0.00  0.00  1.00  0.00  0.00  0.00  0.01  0.00
  232                     1.00   0.00  0.00  0.00  1.00  0.00  0.00  0.00  0.00  0.00
  233                     1.00   0.00  0.00  0.00  1.00  0.00  0.00  0.00  0.00  0.00
  234                     1.00   0.00  0.00  0.00  1.00  0.00  0.00  0.00  0.00  0.00
  235                     1.00   0.00  0.00  0.00  1.00  0.00  0.00  0.00  0.00  0.00
  236                     1.00   0.00  0.00  0.00  1.00  0.00  0.00  0.00  0.00  0.00
  237                     1.00   0.00  0.00  0.00  1.00  0.00  0.00  0.00  0.00  0.00
  238                     1.00   0.00  0.00  0.00  1.00  0.00  0.00  0.00  0.00  0.00
  239                     1.00   0.00  0.00  0.00  1.00  0.00  0.00  0.00  0.00  0.00
  240                     1.00   0.00  0.00  0.00  1.00  0.00  0.00  0.00  0.02  0.00
  241                     1.00   0.00  0.00  0.00  1.00  0.00  0.00  0.00  0.00  0.00
  
  
  *************************
  Conduit Surcharge Summary
  *************************
  
  ----------------------------------------------------------------------------
                                                           Hours        Hours 
                         --------- Hours Full --------   Above Full   Capacity
  Conduit                Both Ends  Upstream  Dnstream   Normal Flow   Limited
  ----------------------------------------------------------------------------
  100                         4.43      4.43      4.61      0.01         0.01
  101                         4.61      4.61      4.78      0.01         0.01
  102                         4.78      4.78      4.97      0.01         0.01
  103                         4.97      4.97      5.14      0.01         0.01
  121                         3.64      3.64      3.65      0.01         0.01
  122                         3.65      3.65      3.67      0.01         0.01
  123                         3.67      3.67      3.70      0.01         0.01
  124                         3.70      3.70      3.75      0.01         0.01
  125                         3.75      3.75      3.82      0.01         0.01
  126                         3.82      3.82      3.92      0.01         0.01
  127                         3.92      3.92      4.04      0.01         0.01
  128                         4.04      4.04      4.18      0.01         0.01
  129                         4.18      4.18      4.34      0.01         0.01
  130                         4.34      4.34      4.53      0.01         0.01
  131                         3.66      3.66      3.68      0.01         0.01
  132                         3.68      3.68      3.71      0.01         0.01
  133                         3.71      3.71      3.76      0.01         0.01
  134                         3.76      3.76      3.83      0.01         0.01
  135                         3.83      3.83      3.92      0.01         0.01
  136                         3.92      3.92      4.04      0.01         0.01
  137                         4.04      4.04      4.18      0.01         0.01
  138                         4.18      4.18      4.34      0.01         0.01
  139                         4.34      4.34      4.53      0.01         0.01
  140                         4.53      4.53      4.72      0.01         0.01
  141                         3.68      3.68      3.72      0.01         0.01
  142                         3.72      3.72      3.76      0.01         0.01
  143                         3.76      3.76      3.83      0.01         0.01
  144                         3.83      3.83      3.92      0.01         0.01
  145                         3.92      3.92      4.03      0.01         0.01
  146                         4.03      4.03      4.17      0.01         0.01
  147                         4.17      4.17      4.34      0.01         0.01
  148                         4.34      4.34      4.51      0.01         0.01
  149                         4.51      4.51      4.70      0.01         0.01
  150                         4.70      4.70      4.89      0.01         0.01
  151                         3.71      3.71      3.76      0.01         0.01
  152                         3.76      3.76      3.83      0.01         0.01
  153                         3.83      3.83      3.91      0.01         0.01
  154                         3.91      3.91      4.02      0.01         0.01
  155                         4.02      4.02      4.16      0.01         0.01
  156                         4.16      4.16      4.31      0.01         0.01
  157                         4.31      4.31      4.48      0.01         0.01
  158                         4.48      4.48      4.66      0.01         0.01
  159                         4.66      4.66      4.85      0.01         0.01
  160                         4.85      4.85      5.03      0.01         0.01
  161                         3.75      3.75      3.81      0.01         0.01
  162                         3.81      3.81      3.89      0.01         0.01
  163                         3.89      3.89      3.99      0.01         0.01
  164                         3.99      3.99      4.12      0.01         0.01
  165                         4.12      4.12      4.27      0.01         0.01
  166                         4.27      4.27      4.43      0.01         0.01
  171                         3.77      3.77      3.84      0.01         0.01
  172                         3.84      3.84      3.93      0.01         0.01
  173                         3.93      3.93      4.05      0.01         0.01
  174                         4.05      4.05      4.19      0.01         0.01
  175                         4.19      4.19      4.35      0.01         0.01
  176                         4.35      4.35      4.52      0.01         0.01
  177                         4.52      4.52      4.70      0.01         0.01
  178                         4.70      4.70      4.87      0.01         0.01
  179                         4.87      4.87      5.05      0.01         0.01
  180                         5.05      5.05      5.20      0.01         0.01
  181                         3.76      3.76      3.84      0.01         0.01
  182                         3.84      3.84      3.94      0.01         0.01
  183                         3.94      3.94      4.07      0.01         0.01
  184                         4.07      4.07      4.22      0.01         0.01
  185                         4.22      4.22      4.39      0.01         0.01
  186                         4.39      4.39      4.56      0.01         0.01
  187                         4.56      4.56      4.74      0.01         0.01
  188                         4.74      4.74      4.92      0.01         0.01
  189                         4.92      4.92      5.09      0.01         0.01
  190                         5.09      5.09      5.24      0.01         0.01
  191                         3.70      3.70      3.77      0.01         0.01
  192                         3.77      3.77      3.87      0.01         0.01
  193                         3.87      3.87      4.01      0.01         0.01
  194                         4.01      4.01      4.17      0.01         0.01
  195                         4.17      4.17      4.36      0.01         0.01
  196                         4.36      4.36      4.55      0.01         0.01
  197                         4.55      4.55      4.74      0.01         0.01
  198                         4.74      4.74      4.93      0.01         0.01
  199                         4.93      4.93      5.11      0.01         0.01
  200                         5.11      5.11      5.25      0.01         0.01
  201                         3.60      3.60      3.65      0.01         0.01
  202                         3.65      3.65      3.71      0.01         0.01
  203                         3.71      3.71      3.83      0.01         0.01
  204                         3.83      3.83      4.00      0.01         0.01
  205                         4.00      4.00      4.21      0.01         0.01
  206                         4.21      4.21      4.44      0.01         0.01
  207                         4.44      4.44      4.67      0.01         0.01
  208                         4.67      4.67      4.89      0.01         0.01
  209                         4.89      4.89      5.09      0.01         0.01
  210                         5.09      5.09      5.25      0.01         0.01
  211                         3.51      3.51      3.52      0.01         0.01
  212                         3.52      3.52      3.54      0.01         0.01
  213                         3.54      3.54      3.57      0.01         0.01
  214                         3.57      3.57      3.65      0.01         0.01
  215                         3.65      3.65      3.82      0.01         0.01
  216                         3.82      3.82      4.08      0.01         0.01
  217                         4.08      4.08      4.40      0.01         0.01
  218                         4.40      4.40      4.71      0.01         0.01
  219                         4.71      4.71      4.99      0.01         0.01
  220                         4.99      4.99      5.20      0.01         0.01
  221                         3.12      3.12      3.29      0.01         0.01
  222                         3.29      3.29      3.33      0.01         0.01
  223                         3.33      3.33      3.38      0.01         0.01
  224                         3.38      3.38      3.40      0.01         0.01
  225                         3.40      3.40      3.46      0.01         0.01
  226                         3.46      3.46      3.51      0.01         0.01
  227                         3.51      3.51      3.61      0.01         0.01
  228                         3.61      3.61      3.92      0.01         0.01
  229                         3.92      3.92      4.47      0.01         0.01
  230                         4.47      4.47      4.96      0.01         0.01
  231                         4.53      4.53      4.72      0.01         0.01
  232                         4.72      4.72      4.89      0.01         0.01
  233                         4.89      4.89      5.03      0.01         0.01
  234                         5.03      5.03      5.14      3.58         3.58
  235                         5.14      5.14      5.20      3.62         3.63
  236                         5.20      5.20      5.24      3.92         3.90
  237                         5.24      5.24      5.25      5.01         4.76
  238                         5.25      5.25      5.25      5.44         5.25
  239                         5.20      5.25      5.20      5.47         5.22
  240                         4.96      5.20      4.96      5.49         5.13
  241                         0.01      4.96      0.01      5.87         3.61
  

  Analysis begun on:  Mon Nov 28 18:07:06 2022
  Analysis ended on:  Mon Nov 28 18:07:07 2022
  Total elapsed time: 00:00:01