
  EPA STORM WATER MANAGEMENT MODEL - VERSION 5.1 (Build 5.1.015)
  --------------------------------------------------------------

  WARNING 04: minimum elevation drop used for Conduit 241
  
  *********************************************************
  NOTE: The summary statistics displayed in this report are
  based on results found at every computational time step,  
  not just on results from each reporting time step.
  *********************************************************
  
  ****************
  Analysis Options
  ****************
  Flow Units ............... CMS
  Process Models:
    Rainfall/Runoff ........ NO
    RDII ................... NO
    Snowmelt ............... NO
    Groundwater ............ NO
    Flow Routing ........... YES
    Ponding Allowed ........ NO
    Water Quality .......... NO
  Flow Routing Method ...... DYNWAVE
  Surcharge Method ......... SLOT
  Starting Date ............ 10/31/2022 00:00:00
  Ending Date .............. 10/31/2022 06:00:00
  Antecedent Dry Days ...... 0.0
  Report Time Step ......... 00:00:10
  Routing Time Step ........ 1.00 sec
  Variable Time Step ....... NO
  Maximum Trials ........... 8
  Number of Threads ........ 6
  Head Tolerance ........... 0.001500 m
  
  
  **************************        Volume        Volume
  Flow Routing Continuity        hectare-m      10^6 ltr
  **************************     ---------     ---------
  Dry Weather Inflow .......         0.000         0.000
  Wet Weather Inflow .......         0.000         0.000
  Groundwater Inflow .......         0.000         0.000
  RDII Inflow ..............         0.000         0.000
  External Inflow ..........         4.541        45.406
  External Outflow .........         3.025        30.250
  Flooding Loss ............         0.000         0.000
  Evaporation Loss .........         0.000         0.000
  Exfiltration Loss ........         0.000         0.000
  Initial Stored Volume ....         0.000         0.000
  Final Stored Volume ......         1.494        14.945
  Continuity Error (%) .....         0.464
  
  
  *************************
  Highest Continuity Errors
  *************************
  Node A09 (17.60%)
  Node J00 (17.60%)
  Node I00 (14.78%)
  Node A08 (14.78%)
  Node A10 (14.40%)
  
  
  ********************************
  Highest Flow Instability Indexes
  ********************************
  All links are stable.
  
  
  *************************
  Routing Time Step Summary
  *************************
  Minimum Time Step           :     1.00 sec
  Average Time Step           :     1.00 sec
  Maximum Time Step           :     1.00 sec
  Percent in Steady State     :     0.00
  Average Iterations per Step :     2.00
  Percent Not Converging      :     0.00
  
  
  ******************
  Node Depth Summary
  ******************
  
  ---------------------------------------------------------------------------------
                                 Average  Maximum  Maximum  Time of Max    Reported
                                   Depth    Depth      HGL   Occurrence   Max Depth
  Node                 Type       Meters   Meters   Meters  days hr:min      Meters
  ---------------------------------------------------------------------------------
  A00                  JUNCTION     0.08     0.08     2.08     0  01:04        0.08
  A01                  JUNCTION     0.10     0.14     2.04     0  06:00        0.14
  A02                  JUNCTION     0.12     0.23     2.03     0  06:00        0.23
  A03                  JUNCTION     0.15     0.33     2.03     0  06:00        0.33
  A04                  JUNCTION     0.18     0.43     2.03     0  06:00        0.43
  A05                  JUNCTION     0.23     0.53     2.03     0  06:00        0.53
  A06                  JUNCTION     0.29     0.63     2.03     0  06:00        0.63
  A07                  JUNCTION     0.35     0.73     2.03     0  06:00        0.73
  A08                  JUNCTION     0.43     0.83     2.03     0  06:00        0.83
  A09                  JUNCTION     0.51     0.93     2.03     0  06:00        0.93
  A10                  JUNCTION     0.60     1.03     2.03     0  06:00        1.03
  B00                  JUNCTION     0.10     0.14     2.04     0  06:00        0.14
  B01                  JUNCTION     0.14     0.23     2.03     0  06:00        0.23
  B02                  JUNCTION     0.17     0.33     2.03     0  06:00        0.33
  B03                  JUNCTION     0.21     0.43     2.03     0  06:00        0.43
  B04                  JUNCTION     0.25     0.53     2.03     0  06:00        0.53
  B05                  JUNCTION     0.31     0.63     2.03     0  06:00        0.63
  B06                  JUNCTION     0.37     0.73     2.03     0  06:00        0.73
  B07                  JUNCTION     0.44     0.83     2.03     0  06:00        0.83
  B08                  JUNCTION     0.51     0.93     2.03     0  06:00        0.93
  B09                  JUNCTION     0.60     1.03     2.03     0  06:00        1.03
  B10                  JUNCTION     0.69     1.13     2.03     0  06:00        1.13
  C00                  JUNCTION     0.12     0.23     2.03     0  06:00        0.23
  C01                  JUNCTION     0.17     0.33     2.03     0  06:00        0.33
  C02                  JUNCTION     0.21     0.43     2.03     0  06:00        0.43
  C03                  JUNCTION     0.26     0.53     2.03     0  06:00        0.53
  C04                  JUNCTION     0.32     0.63     2.03     0  06:00        0.63
  C05                  JUNCTION     0.38     0.73     2.03     0  06:00        0.73
  C06                  JUNCTION     0.45     0.83     2.03     0  06:00        0.83
  C07                  JUNCTION     0.52     0.93     2.03     0  06:00        0.93
  C08                  JUNCTION     0.60     1.03     2.03     0  06:00        1.03
  C09                  JUNCTION     0.69     1.13     2.03     0  06:00        1.13
  C10                  JUNCTION     0.79     1.23     2.03     0  06:00        1.23
  D00                  JUNCTION     0.15     0.33     2.03     0  06:00        0.33
  D01                  JUNCTION     0.21     0.43     2.03     0  06:00        0.43
  D02                  JUNCTION     0.26     0.53     2.03     0  06:00        0.53
  D03                  JUNCTION     0.32     0.63     2.03     0  06:00        0.63
  D04                  JUNCTION     0.38     0.73     2.03     0  06:00        0.73
  D05                  JUNCTION     0.45     0.83     2.03     0  06:00        0.83
  D06                  JUNCTION     0.52     0.93     2.03     0  06:00        0.93
  D07                  JUNCTION     0.60     1.03     2.03     0  06:00        1.03
  D08                  JUNCTION     0.69     1.13     2.03     0  06:00        1.13
  D09                  JUNCTION     0.78     1.23     2.03     0  06:00        1.23
  D10                  JUNCTION     0.88     1.33     2.03     0  06:00        1.33
  E00                  JUNCTION     0.18     0.43     2.03     0  06:00        0.43
  E01                  JUNCTION     0.25     0.53     2.03     0  06:00        0.53
  E02                  JUNCTION     0.32     0.63     2.03     0  06:00        0.63
  E03                  JUNCTION     0.38     0.73     2.03     0  06:00        0.73
  E04                  JUNCTION     0.45     0.83     2.03     0  06:00        0.83
  E05                  JUNCTION     0.53     0.93     2.03     0  06:00        0.93
  E06                  JUNCTION     0.60     1.03     2.03     0  06:00        1.03
  E07                  JUNCTION     0.69     1.13     2.03     0  06:00        1.13
  E08                  JUNCTION     0.77     1.23     2.03     0  06:00        1.23
  E09                  JUNCTION     0.87     1.33     2.03     0  06:00        1.33
  E10                  JUNCTION     0.96     1.43     2.03     0  06:00        1.43
  F00                  JUNCTION     0.23     0.53     2.03     0  06:00        0.53
  F01                  JUNCTION     0.31     0.63     2.03     0  06:00        0.63
  F02                  JUNCTION     0.38     0.73     2.03     0  06:00        0.73
  F03                  JUNCTION     0.45     0.83     2.03     0  06:00        0.83
  F04                  JUNCTION     0.53     0.93     2.03     0  06:00        0.93
  F05                  JUNCTION     0.60     1.03     2.03     0  06:00        1.03
  F06                  JUNCTION     0.69     1.13     2.03     0  06:00        1.13
  F07                  JUNCTION     0.77     1.23     2.03     0  06:00        1.23
  F08                  JUNCTION     0.86     1.32     2.02     0  06:00        1.32
  F09                  JUNCTION     0.95     1.42     2.02     0  06:00        1.42
  F10                  JUNCTION     1.05     1.52     2.02     0  06:00        1.52
  G00                  JUNCTION     0.29     0.63     2.03     0  06:00        0.63
  G01                  JUNCTION     0.37     0.73     2.03     0  06:00        0.73
  G02                  JUNCTION     0.45     0.83     2.03     0  06:00        0.83
  G03                  JUNCTION     0.52     0.93     2.03     0  06:00        0.93
  G04                  JUNCTION     0.60     1.03     2.03     0  06:00        1.03
  G05                  JUNCTION     0.69     1.13     2.03     0  06:00        1.13
  G06                  JUNCTION     0.77     1.22     2.02     0  06:00        1.22
  G07                  JUNCTION     0.86     1.32     2.02     0  06:00        1.32
  G08                  JUNCTION     0.95     1.42     2.02     0  06:00        1.42
  G09                  JUNCTION     1.04     1.52     2.02     0  06:00        1.52
  G10                  JUNCTION     1.14     1.62     2.02     0  06:00        1.62
  H00                  JUNCTION     0.35     0.73     2.03     0  06:00        0.73
  H01                  JUNCTION     0.44     0.83     2.03     0  06:00        0.83
  H02                  JUNCTION     0.52     0.93     2.03     0  06:00        0.93
  H03                  JUNCTION     0.60     1.03     2.03     0  06:00        1.03
  H04                  JUNCTION     0.69     1.13     2.03     0  06:00        1.13
  H05                  JUNCTION     0.77     1.23     2.03     0  06:00        1.23
  H06                  JUNCTION     0.86     1.32     2.02     0  06:00        1.32
  H07                  JUNCTION     0.94     1.42     2.02     0  06:00        1.42
  H08                  JUNCTION     1.03     1.51     2.01     0  06:00        1.51
  H09                  JUNCTION     1.12     1.61     2.01     0  06:00        1.61
  H10                  JUNCTION     1.22     1.70     2.00     0  06:00        1.70
  I00                  JUNCTION     0.43     0.83     2.03     0  06:00        0.83
  I01                  JUNCTION     0.51     0.93     2.03     0  06:00        0.93
  I02                  JUNCTION     0.60     1.03     2.03     0  06:00        1.03
  I03                  JUNCTION     0.69     1.13     2.03     0  06:00        1.13
  I04                  JUNCTION     0.77     1.23     2.03     0  06:00        1.23
  I05                  JUNCTION     0.86     1.32     2.02     0  06:00        1.32
  I06                  JUNCTION     0.95     1.42     2.02     0  06:00        1.42
  I07                  JUNCTION     1.03     1.51     2.01     0  06:00        1.51
  I08                  JUNCTION     1.12     1.60     2.00     0  06:00        1.60
  I09                  JUNCTION     1.20     1.68     1.98     0  06:00        1.68
  I10                  JUNCTION     1.29     1.78     1.98     0  06:00        1.78
  J00                  JUNCTION     0.51     0.93     2.03     0  06:00        0.93
  J01                  JUNCTION     0.60     1.03     2.03     0  06:00        1.03
  J02                  JUNCTION     0.69     1.13     2.03     0  06:00        1.13
  J03                  JUNCTION     0.78     1.23     2.03     0  06:00        1.23
  J04                  JUNCTION     0.87     1.33     2.03     0  06:00        1.33
  J05                  JUNCTION     0.95     1.42     2.02     0  06:00        1.42
  J06                  JUNCTION     1.04     1.52     2.02     0  06:00        1.52
  J07                  JUNCTION     1.12     1.61     2.01     0  06:00        1.61
  J08                  JUNCTION     1.20     1.68     1.98     0  06:00        1.68
  J09                  JUNCTION     1.27     1.75     1.95     0  06:00        1.75
  J10                  JUNCTION     1.35     1.81     1.91     0  06:00        1.81
  K00                  JUNCTION     0.60     1.03     2.03     0  06:00        1.03
  K01                  JUNCTION     0.69     1.13     2.03     0  06:00        1.13
  K02                  JUNCTION     0.79     1.23     2.03     0  06:00        1.23
  K03                  JUNCTION     0.88     1.33     2.03     0  06:00        1.33
  K04                  JUNCTION     0.96     1.43     2.03     0  06:00        1.43
  K05                  JUNCTION     1.05     1.52     2.02     0  06:00        1.52
  K06                  JUNCTION     1.14     1.62     2.02     0  06:00        1.62
  K07                  JUNCTION     1.22     1.70     2.00     0  06:00        1.70
  K08                  JUNCTION     1.29     1.78     1.98     0  06:00        1.78
  K09                  JUNCTION     1.35     1.81     1.91     0  06:00        1.81
  K10                  JUNCTION     1.31     1.70     1.70     0  06:00        1.70
  Outfall              OUTFALL      0.66     0.78     0.78     0  06:00        0.78
  
  
  *******************
  Node Inflow Summary
  *******************
  
  -------------------------------------------------------------------------------------------------
                                  Maximum  Maximum                  Lateral       Total        Flow
                                  Lateral    Total  Time of Max      Inflow      Inflow     Balance
                                   Inflow   Inflow   Occurrence      Volume      Volume       Error
  Node                 Type           CMS      CMS  days hr:min    10^6 ltr    10^6 ltr     Percent
  -------------------------------------------------------------------------------------------------
  A00                  JUNCTION     0.017    0.017     0  00:00       0.375       0.375       0.798
  A01                  JUNCTION     0.017    0.026     0  01:04       0.375       0.561       1.808
  A02                  JUNCTION     0.017    0.030     0  05:28       0.375       0.652       3.342
  A03                  JUNCTION     0.017    0.033     0  04:40       0.375       0.697       5.194
  A04                  JUNCTION     0.017    0.035     0  06:00       0.375       0.725       7.241
  A05                  JUNCTION     0.017    0.036     0  06:00       0.375       0.743       9.400
  A06                  JUNCTION     0.017    0.036     0  04:41       0.375        0.75      11.688
  A07                  JUNCTION     0.017    0.036     0  03:18       0.375        0.74      14.251
  A08                  JUNCTION     0.017    0.035     0  01:40       0.375       0.706      17.338
  A09                  JUNCTION     0.017    0.035     0  01:16       0.375       0.646      21.356
  A10                  JUNCTION     0.017    0.035     0  00:36       0.375       0.547      16.827
  B00                  JUNCTION     0.017    0.026     0  01:04       0.375       0.561       1.808
  B01                  JUNCTION     0.017    0.043     0  01:27       0.375       0.925       3.121
  B02                  JUNCTION     0.017    0.054     0  01:46       0.375        1.13       4.192
  B03                  JUNCTION     0.017    0.061     0  01:51       0.375        1.24       5.515
  B04                  JUNCTION     0.017    0.065     0  01:55       0.375        1.29       7.032
  B05                  JUNCTION     0.017    0.067     0  01:58       0.375         1.3       8.683
  B06                  JUNCTION     0.017    0.068     0  02:02       0.375         1.3      10.450
  B07                  JUNCTION     0.017    0.069     0  01:35       0.375        1.26      12.376
  B08                  JUNCTION     0.017    0.069     0  01:12       0.375         1.2      14.479
  B09                  JUNCTION     0.017    0.070     0  00:44       0.375        1.11      16.584
  B10                  JUNCTION     0.017    0.078     0  00:36       0.375        1.06      13.018
  C00                  JUNCTION     0.017    0.030     0  05:28       0.375       0.652       3.342
  C01                  JUNCTION     0.017    0.054     0  01:46       0.375        1.13       4.192
  C02                  JUNCTION     0.017    0.072     0  01:51       0.375        1.45       4.678
  C03                  JUNCTION     0.017    0.084     0  01:55       0.375        1.64       5.445
  C04                  JUNCTION     0.017    0.091     0  01:59       0.375        1.74       6.372
  C05                  JUNCTION     0.017    0.097     0  02:03       0.375        1.78       7.384
  C06                  JUNCTION     0.017    0.100     0  01:36       0.375        1.79       8.442
  C07                  JUNCTION     0.017    0.102     0  01:13       0.375        1.74       9.527
  C08                  JUNCTION     0.017    0.103     0  00:54       0.375        1.66      10.533
  C09                  JUNCTION     0.017    0.107     0  00:43       0.375        1.57      11.478
  C10                  JUNCTION     0.017    0.125     0  00:38       0.375        1.54       8.716
  D00                  JUNCTION     0.017    0.033     0  04:40       0.375       0.697       5.194
  D01                  JUNCTION     0.017    0.061     0  01:51       0.375        1.24       5.515
  D02                  JUNCTION     0.017    0.084     0  01:55       0.375        1.64       5.445
  D03                  JUNCTION     0.017    0.101     0  01:59       0.375        1.91       5.762
  D04                  JUNCTION     0.017    0.114     0  02:03       0.375        2.09       6.232
  D05                  JUNCTION     0.017    0.122     0  01:32       0.375         2.2       6.737
  D06                  JUNCTION     0.017    0.128     0  01:10       0.375        2.25       7.207
  D07                  JUNCTION     0.017    0.132     0  00:51       0.375        2.24       7.585
  D08                  JUNCTION     0.017    0.135     0  00:45       0.375        2.16       8.055
  D09                  JUNCTION     0.017    0.147     0  00:40       0.375        2.08       8.565
  D10                  JUNCTION     0.017    0.173     0  00:37       0.375        2.05       6.502
  E00                  JUNCTION     0.017    0.035     0  06:00       0.375       0.725       7.241
  E01                  JUNCTION     0.017    0.065     0  01:55       0.375        1.29       7.032
  E02                  JUNCTION     0.017    0.091     0  01:59       0.375        1.74       6.372
  E03                  JUNCTION     0.017    0.114     0  02:03       0.375        2.09       6.232
  E04                  JUNCTION     0.017    0.131     0  01:32       0.375        2.36       6.245
  E05                  JUNCTION     0.017    0.144     0  01:00       0.375        2.58       6.236
  E06                  JUNCTION     0.017    0.153     0  00:53       0.375        2.74       6.122
  E07                  JUNCTION     0.017    0.160     0  00:47       0.375         2.8       6.101
  E08                  JUNCTION     0.017    0.166     0  00:42       0.375        2.77       6.293
  E09                  JUNCTION     0.017    0.185     0  00:38       0.375        2.68       6.602
  E10                  JUNCTION     0.017    0.218     0  00:36       0.375         2.6       5.094
  F00                  JUNCTION     0.017    0.036     0  06:00       0.375       0.743       9.400
  F01                  JUNCTION     0.017    0.067     0  01:58       0.375         1.3       8.683
  F02                  JUNCTION     0.017    0.097     0  02:03       0.375        1.78       7.384
  F03                  JUNCTION     0.017    0.122     0  01:32       0.375         2.2       6.737
  F04                  JUNCTION     0.017    0.144     0  01:00       0.375        2.58       6.236
  F05                  JUNCTION     0.017    0.161     0  00:53       0.375        2.94       5.675
  F06                  JUNCTION     0.017    0.177     0  06:00       0.375        3.26       5.201
  F07                  JUNCTION     0.017    0.194     0  06:00       0.375        3.48       4.931
  F08                  JUNCTION     0.017    0.199     0  06:00       0.375        3.54       4.900
  F09                  JUNCTION     0.017    0.215     0  00:36       0.375        3.45       5.093
  F10                  JUNCTION     0.017    0.254     0  00:34       0.375        3.26       4.041
  G00                  JUNCTION     0.017    0.036     0  04:41       0.375        0.75      11.688
  G01                  JUNCTION     0.017    0.068     0  02:02       0.375         1.3      10.450
  G02                  JUNCTION     0.017    0.100     0  01:36       0.375        1.79       8.442
  G03                  JUNCTION     0.017    0.128     0  01:10       0.375        2.25       7.207
  G04                  JUNCTION     0.017    0.153     0  00:53       0.375        2.74       6.122
  G05                  JUNCTION     0.017    0.177     0  06:00       0.375        3.26       5.201
  G06                  JUNCTION     0.017    0.217     0  06:00       0.375        3.81       4.485
  G07                  JUNCTION     0.017    0.251     0  06:00       0.375        4.31       3.990
  G08                  JUNCTION     0.017    0.270     0  06:00       0.375        4.61       3.757
  G09                  JUNCTION     0.017    0.261     0  06:00       0.375        4.56       3.826
  G10                  JUNCTION     0.017    0.274     0  00:32       0.375        4.17       3.138
  H00                  JUNCTION     0.017    0.036     0  03:18       0.375        0.74      14.251
  H01                  JUNCTION     0.017    0.069     0  01:35       0.375        1.26      12.376
  H02                  JUNCTION     0.017    0.102     0  01:13       0.375        1.74       9.527
  H03                  JUNCTION     0.017    0.132     0  00:51       0.375        2.24       7.585
  H04                  JUNCTION     0.017    0.160     0  00:47       0.375         2.8       6.101
  H05                  JUNCTION     0.017    0.194     0  06:00       0.375        3.48       4.931
  H06                  JUNCTION     0.017    0.251     0  06:00       0.375        4.31       3.990
  H07                  JUNCTION     0.017    0.312     0  06:00       0.375        5.24       3.287
  H08                  JUNCTION     0.017    0.360     0  06:00       0.375        6.04       2.855
  H09                  JUNCTION     0.017    0.371     0  06:00       0.375        6.29       2.752
  H10                  JUNCTION     0.017    0.324     0  06:00       0.375        5.67       2.294
  I00                  JUNCTION     0.017    0.035     0  01:40       0.375       0.706      17.338
  I01                  JUNCTION     0.017    0.069     0  01:12       0.375         1.2      14.479
  I02                  JUNCTION     0.017    0.103     0  00:54       0.375        1.66      10.533
  I03                  JUNCTION     0.017    0.135     0  00:45       0.375        2.16       8.055
  I04                  JUNCTION     0.017    0.166     0  00:42       0.375        2.77       6.293
  I05                  JUNCTION     0.017    0.199     0  06:00       0.375        3.54       4.900
  I06                  JUNCTION     0.017    0.270     0  06:00       0.375        4.61       3.757
  I07                  JUNCTION     0.017    0.360     0  06:00       0.375        6.04       2.855
  I08                  JUNCTION     0.017    0.464     0  06:00       0.375        7.73       2.225
  I09                  JUNCTION     0.017    0.540     0  06:00       0.375        9.03       1.906
  I10                  JUNCTION     0.017    0.507     0  06:00       0.375         8.6       1.505
  J00                  JUNCTION     0.017    0.035     0  01:16       0.375       0.646      21.356
  J01                  JUNCTION     0.017    0.070     0  00:44       0.375        1.11      16.584
  J02                  JUNCTION     0.017    0.107     0  00:43       0.375        1.57      11.478
  J03                  JUNCTION     0.017    0.147     0  00:40       0.375        2.08       8.565
  J04                  JUNCTION     0.017    0.185     0  00:38       0.375        2.68       6.602
  J05                  JUNCTION     0.017    0.215     0  00:36       0.375        3.45       5.093
  J06                  JUNCTION     0.017    0.261     0  06:00       0.375        4.56       3.826
  J07                  JUNCTION     0.017    0.371     0  06:00       0.375        6.29       2.752
  J08                  JUNCTION     0.017    0.540     0  06:00       0.375        9.03       1.906
  J09                  JUNCTION     0.017    0.764     0  06:00       0.375        12.7       1.346
  J10                  JUNCTION     0.017    0.906     0  06:00       0.375        15.1       0.853
  K00                  JUNCTION     0.017    0.035     0  00:36       0.375       0.547      16.827
  K01                  JUNCTION     0.017    0.078     0  00:36       0.375        1.06      13.018
  K02                  JUNCTION     0.017    0.125     0  00:38       0.375        1.54       8.716
  K03                  JUNCTION     0.017    0.173     0  00:37       0.375        2.05       6.502
  K04                  JUNCTION     0.017    0.218     0  00:36       0.375         2.6       5.094
  K05                  JUNCTION     0.017    0.254     0  00:34       0.375        3.26       4.041
  K06                  JUNCTION     0.017    0.274     0  00:32       0.375        4.17       3.138
  K07                  JUNCTION     0.017    0.324     0  06:00       0.375        5.67       2.294
  K08                  JUNCTION     0.017    0.507     0  06:00       0.375         8.6       1.505
  K09                  JUNCTION     0.017    0.906     0  06:00       0.375        15.1       0.853
  K10                  JUNCTION     0.017    1.830     0  06:00       0.375        30.4       0.437
  Outfall              OUTFALL      0.000    1.830     0  06:00           0        30.2       0.000
  
  
  **********************
  Node Surcharge Summary
  **********************
  
  Surcharging occurs when water rises above the top of the highest conduit.
  ---------------------------------------------------------------------
                                               Max. Height   Min. Depth
                                   Hours       Above Crown    Below Rim
  Node                 Type      Surcharged         Meters       Meters
  ---------------------------------------------------------------------
  A10                  JUNCTION        0.28          0.031        8.969
  B09                  JUNCTION        0.28          0.031        8.969
  B10                  JUNCTION        1.14          0.131        8.869
  C08                  JUNCTION        0.28          0.031        8.969
  C09                  JUNCTION        1.13          0.131        8.869
  C10                  JUNCTION        1.91          0.231        8.769
  D07                  JUNCTION        0.27          0.030        8.970
  D08                  JUNCTION        1.13          0.130        8.870
  D09                  JUNCTION        1.90          0.230        8.770
  D10                  JUNCTION        2.60          0.330        8.670
  E06                  JUNCTION        0.27          0.029        8.971
  E07                  JUNCTION        1.12          0.128        8.872
  E08                  JUNCTION        1.89          0.228        8.772
  E09                  JUNCTION        2.59          0.328        8.672
  E10                  JUNCTION        3.21          0.428        8.572
  F05                  JUNCTION        0.26          0.029        8.971
  F06                  JUNCTION        1.11          0.127        8.873
  F07                  JUNCTION        1.88          0.226        8.774
  F08                  JUNCTION        2.58          0.325        8.675
  F09                  JUNCTION        3.20          0.424        8.576
  F10                  JUNCTION        3.74          0.524        8.476
  G04                  JUNCTION        0.27          0.029        8.971
  G05                  JUNCTION        1.11          0.127        8.873
  G06                  JUNCTION        1.88          0.225        8.775
  G07                  JUNCTION        2.56          0.322        8.678
  G08                  JUNCTION        3.18          0.419        8.581
  G09                  JUNCTION        3.72          0.518        8.482
  G10                  JUNCTION        4.20          0.617        8.383
  H03                  JUNCTION        0.27          0.030        8.970
  H04                  JUNCTION        1.12          0.128        8.872
  H05                  JUNCTION        1.88          0.226        8.774
  H06                  JUNCTION        2.56          0.322        8.678
  H07                  JUNCTION        3.17          0.417        8.583
  H08                  JUNCTION        3.70          0.510        8.490
  H09                  JUNCTION        4.17          0.606        8.394
  H10                  JUNCTION        4.59          0.704        8.296
  I02                  JUNCTION        0.28          0.031        8.969
  I03                  JUNCTION        1.13          0.130        8.870
  I04                  JUNCTION        1.89          0.228        8.772
  I05                  JUNCTION        2.58          0.325        8.675
  I06                  JUNCTION        3.18          0.419        8.581
  I07                  JUNCTION        3.70          0.510        8.490
  I08                  JUNCTION        4.16          0.598        8.402
  I09                  JUNCTION        4.56          0.684        8.316
  I10                  JUNCTION        4.89          0.777        8.223
  J01                  JUNCTION        0.28          0.031        8.969
  J02                  JUNCTION        1.13          0.131        8.869
  J03                  JUNCTION        1.90          0.230        8.770
  J04                  JUNCTION        2.59          0.328        8.672
  J05                  JUNCTION        3.20          0.424        8.576
  J06                  JUNCTION        3.72          0.518        8.482
  J07                  JUNCTION        4.17          0.606        8.394
  J08                  JUNCTION        4.56          0.684        8.316
  J09                  JUNCTION        4.85          0.748        8.252
  J10                  JUNCTION        5.08          0.811        8.189
  K00                  JUNCTION        0.28          0.031        8.969
  K01                  JUNCTION        1.14          0.131        8.869
  K02                  JUNCTION        1.91          0.231        8.769
  K03                  JUNCTION        2.60          0.330        8.670
  K04                  JUNCTION        3.21          0.428        8.572
  K05                  JUNCTION        3.74          0.524        8.476
  K06                  JUNCTION        4.20          0.617        8.383
  K07                  JUNCTION        4.59          0.704        8.296
  K08                  JUNCTION        4.89          0.777        8.223
  K09                  JUNCTION        5.08          0.811        8.189
  K10                  JUNCTION        5.16          0.699        8.301
  
  
  *********************
  Node Flooding Summary
  *********************
  
  No nodes were flooded.
  
  
  ***********************
  Outfall Loading Summary
  ***********************
  
  -----------------------------------------------------------
                         Flow       Avg       Max       Total
                         Freq      Flow      Flow      Volume
  Outfall Node           Pcnt       CMS       CMS    10^6 ltr
  -----------------------------------------------------------
  Outfall               99.90     1.402     1.830      30.250
  -----------------------------------------------------------
  System                99.90     1.402     1.830      30.250
  
  
  ********************
  Link Flow Summary
  ********************
  
  -----------------------------------------------------------------------------
                                 Maximum  Time of Max   Maximum    Max/    Max/
                                  |Flow|   Occurrence   |Veloc|    Full    Full
  Link                 Type          CMS  days hr:min     m/sec    Flow   Depth
  -----------------------------------------------------------------------------
  121                  CONDUIT     0.009     0  01:04      0.27    0.01    0.11
  122                  CONDUIT     0.013     0  05:28      0.30    0.02    0.19
  123                  CONDUIT     0.016     0  04:40      0.32    0.03    0.28
  124                  CONDUIT     0.017     0  06:00      0.33    0.03    0.38
  125                  CONDUIT     0.018     0  06:00      0.34    0.03    0.48
  126                  CONDUIT     0.019     0  04:41      0.34    0.03    0.58
  127                  CONDUIT     0.018     0  03:18      0.34    0.03    0.68
  128                  CONDUIT     0.018     0  01:40      0.34    0.03    0.78
  129                  CONDUIT     0.018     0  01:16      0.34    0.03    0.88
  130                  CONDUIT     0.017     0  00:36      0.26    0.03    0.98
  131                  CONDUIT     0.013     0  01:27      0.28    0.02    0.19
  132                  CONDUIT     0.022     0  01:46      0.34    0.04    0.28
  133                  CONDUIT     0.027     0  04:00      0.38    0.04    0.38
  134                  CONDUIT     0.031     0  03:20      0.40    0.05    0.48
  135                  CONDUIT     0.033     0  02:44      0.41    0.05    0.58
  136                  CONDUIT     0.034     0  02:13      0.42    0.06    0.68
  137                  CONDUIT     0.035     0  01:44      0.42    0.06    0.78
  138                  CONDUIT     0.035     0  01:20      0.42    0.06    0.88
  139                  CONDUIT     0.035     0  00:58      0.40    0.06    0.98
  140                  CONDUIT     0.027     0  00:31      0.26    0.04    1.00
  141                  CONDUIT     0.015     0  01:34      0.29    0.02    0.28
  142                  CONDUIT     0.027     0  01:51      0.36    0.04    0.38
  143                  CONDUIT     0.036     0  01:54      0.40    0.06    0.48
  144                  CONDUIT     0.042     0  02:42      0.43    0.07    0.58
  145                  CONDUIT     0.046     0  02:12      0.45    0.07    0.68
  146                  CONDUIT     0.049     0  01:44      0.46    0.08    0.78
  147                  CONDUIT     0.050     0  01:20      0.47    0.08    0.88
  148                  CONDUIT     0.051     0  01:01      0.47    0.08    0.98
  149                  CONDUIT     0.050     0  00:40      0.41    0.08    1.00
  150                  CONDUIT     0.033     0  00:34      0.24    0.05    1.00
  151                  CONDUIT     0.016     0  01:39      0.29    0.03    0.38
  152                  CONDUIT     0.030     0  01:55      0.36    0.05    0.48
  153                  CONDUIT     0.042     0  01:59      0.42    0.07    0.58
  154                  CONDUIT     0.050     0  02:03      0.45    0.08    0.68
  155                  CONDUIT     0.057     0  01:39      0.48    0.09    0.78
  156                  CONDUIT     0.061     0  01:17      0.49    0.10    0.88
  157                  CONDUIT     0.065     0  01:00      0.50    0.10    0.98
  158                  CONDUIT     0.066     0  00:45      0.49    0.11    1.00
  159                  CONDUIT     0.059     0  00:37      0.40    0.10    1.00
  160                  CONDUIT     0.035     0  00:35      0.24    0.06    1.00
  161                  CONDUIT     0.017     0  01:43      0.29    0.03    0.48
  162                  CONDUIT     0.032     0  01:58      0.37    0.05    0.58
  163                  CONDUIT     0.046     0  02:02      0.42    0.07    0.68
  164                  CONDUIT     0.057     0  01:32      0.47    0.09    0.78
  165                  CONDUIT     0.065     0  01:08      0.49    0.11    0.88
  166                  CONDUIT     0.072     0  00:55      0.51    0.12    0.98
  167                  CONDUIT     0.077     0  00:48      0.52    0.12    1.00
  168                  CONDUIT     0.077     0  00:40      0.50    0.13    1.00
  169                  CONDUIT     0.064     0  00:35      0.39    0.10    1.00
  170                  CONDUIT     0.035     0  00:33      0.24    0.06    1.00
  171                  CONDUIT     0.017     0  01:48      0.29    0.03    0.58
  172                  CONDUIT     0.033     0  02:02      0.37    0.05    0.68
  173                  CONDUIT     0.048     0  01:32      0.43    0.08    0.78
  174                  CONDUIT     0.061     0  00:59      0.47    0.10    0.88
  175                  CONDUIT     0.072     0  00:53      0.50    0.12    0.98
  176                  CONDUIT     0.080     0  00:48      0.52    0.13    1.00
  177                  CONDUIT     0.085     0  00:42      0.53    0.14    1.00
  178                  CONDUIT     0.083     0  00:37      0.50    0.13    1.00
  179                  CONDUIT     0.064     0  00:33      0.39    0.10    1.00
  180                  CONDUIT     0.032     0  00:31      0.24    0.05    1.00
  181                  CONDUIT     0.017     0  01:52      0.29    0.03    0.68
  182                  CONDUIT     0.034     0  01:35      0.37    0.06    0.78
  183                  CONDUIT     0.051     0  06:00      0.43    0.08    0.88
  184                  CONDUIT     0.068     0  06:00      0.47    0.11    0.98
  185                  CONDUIT     0.084     0  06:00      0.51    0.14    1.00
  186                  CONDUIT     0.100     0  06:00      0.53    0.16    1.00
  187                  CONDUIT     0.108     0  06:00      0.54    0.18    1.00
  188                  CONDUIT     0.104     0  06:00      0.49    0.17    1.00
  189                  CONDUIT     0.082     0  06:00      0.39    0.13    1.00
  190                  CONDUIT     0.044     0  06:00      0.24    0.07    1.00
  191                  CONDUIT     0.018     0  06:00      0.29    0.03    0.78
  192                  CONDUIT     0.037     0  06:00      0.37    0.06    0.88
  193                  CONDUIT     0.057     0  05:59      0.43    0.09    0.98
  194                  CONDUIT     0.076     0  06:00      0.47    0.12    1.00
  195                  CONDUIT     0.101     0  06:00      0.51    0.16    1.00
  196                  CONDUIT     0.126     0  06:00      0.53    0.20    1.00
  197                  CONDUIT     0.147     0  06:00      0.53    0.24    1.00
  198                  CONDUIT     0.156     0  06:00      0.49    0.25    1.00
  199                  CONDUIT     0.137     0  06:00      0.39    0.22    1.00
  200                  CONDUIT     0.081     0  06:00      0.24    0.13    1.00
  201                  CONDUIT     0.019     0  05:59      0.29    0.03    0.88
  202                  CONDUIT     0.039     0  06:00      0.37    0.06    0.98
  203                  CONDUIT     0.058     0  06:00      0.43    0.09    1.00
  204                  CONDUIT     0.084     0  06:00      0.47    0.14    1.00
  205                  CONDUIT     0.114     0  06:00      0.50    0.18    1.00
  206                  CONDUIT     0.148     0  06:00      0.53    0.24    1.00
  207                  CONDUIT     0.187     0  06:00      0.53    0.30    1.00
  208                  CONDUIT     0.223     0  06:00      0.48    0.36    1.00
  209                  CONDUIT     0.232     0  06:00      0.39    0.38    1.00
  210                  CONDUIT     0.166     0  06:00      0.24    0.27    1.00
  211                  CONDUIT     0.019     0  05:59      0.29    0.03    0.98
  212                  CONDUIT     0.041     0  00:45      0.36    0.07    1.00
  213                  CONDUIT     0.071     0  00:42      0.43    0.11    1.00
  214                  CONDUIT     0.104     0  00:40      0.49    0.17    1.00
  215                  CONDUIT     0.136     0  00:38      0.55    0.22    1.00
  216                  CONDUIT     0.161     0  06:00      0.59    0.26    1.00
  217                  CONDUIT     0.217     0  06:00      0.59    0.35    1.00
  218                  CONDUIT     0.290     0  06:00      0.54    0.47    1.00
  219                  CONDUIT     0.373     0  06:00      0.48    0.61    1.00
  220                  CONDUIT     0.382     0  06:00      0.49    0.62    1.00
  221                  CONDUIT     0.034     0  00:37      0.34    0.05    1.00
  222                  CONDUIT     0.075     0  00:39      0.44    0.12    1.00
  223                  CONDUIT     0.121     0  00:38      0.52    0.20    1.00
  224                  CONDUIT     0.166     0  00:37      0.58    0.27    1.00
  225                  CONDUIT     0.206     0  00:35      0.63    0.33    1.00
  226                  CONDUIT     0.235     0  00:34      0.67    0.38    1.00
  227                  CONDUIT     0.243     0  00:32      0.68    0.39    1.00
  228                  CONDUIT     0.324     0  06:00      0.63    0.53    1.00
  229                  CONDUIT     0.507     0  06:00      0.65    0.82    1.00
  230                  CONDUIT     0.906     0  06:00      1.15    1.47    1.00
  231                  CONDUIT     0.034     0  00:37      0.34    0.05    1.00
  232                  CONDUIT     0.075     0  00:39      0.44    0.12    1.00
  233                  CONDUIT     0.121     0  00:38      0.52    0.20    1.00
  234                  CONDUIT     0.166     0  00:37      0.58    0.27    1.00
  235                  CONDUIT     0.206     0  00:35      0.63    0.33    1.00
  236                  CONDUIT     0.235     0  00:34      0.67    0.38    1.00
  237                  CONDUIT     0.243     0  00:32      0.68    0.39    1.00
  238                  CONDUIT     0.324     0  06:00      0.63    0.53    1.00
  239                  CONDUIT     0.507     0  06:00      0.65    0.82    1.00
  240                  CONDUIT     0.906     0  06:00      1.15    1.47    1.00
  241                  CONDUIT     1.830     0  06:00      2.33   53.80    1.00
  1                    CONDUIT     0.009     0  01:04      0.27    0.01    0.11
  2                    CONDUIT     0.013     0  05:28      0.30    0.02    0.19
  3                    CONDUIT     0.016     0  04:40      0.32    0.03    0.28
  4                    CONDUIT     0.017     0  06:00      0.33    0.03    0.38
  5                    CONDUIT     0.018     0  06:00      0.34    0.03    0.48
  6                    CONDUIT     0.019     0  04:41      0.34    0.03    0.58
  7                    CONDUIT     0.018     0  03:18      0.34    0.03    0.68
  8                    CONDUIT     0.018     0  01:40      0.34    0.03    0.78
  9                    CONDUIT     0.018     0  01:16      0.34    0.03    0.88
  10                   CONDUIT     0.017     0  00:36      0.26    0.03    0.98
  11                   CONDUIT     0.013     0  01:27      0.28    0.02    0.19
  12                   CONDUIT     0.022     0  01:46      0.34    0.04    0.28
  13                   CONDUIT     0.027     0  04:00      0.38    0.04    0.38
  14                   CONDUIT     0.031     0  03:20      0.40    0.05    0.48
  15                   CONDUIT     0.033     0  02:44      0.41    0.05    0.58
  16                   CONDUIT     0.034     0  02:13      0.42    0.06    0.68
  17                   CONDUIT     0.035     0  01:44      0.42    0.06    0.78
  18                   CONDUIT     0.035     0  01:20      0.42    0.06    0.88
  19                   CONDUIT     0.035     0  00:58      0.40    0.06    0.98
  20                   CONDUIT     0.027     0  00:31      0.26    0.04    1.00
  21                   CONDUIT     0.015     0  01:34      0.29    0.02    0.28
  22                   CONDUIT     0.027     0  01:51      0.36    0.04    0.38
  23                   CONDUIT     0.036     0  01:54      0.40    0.06    0.48
  24                   CONDUIT     0.042     0  02:42      0.43    0.07    0.58
  25                   CONDUIT     0.046     0  02:12      0.45    0.07    0.68
  26                   CONDUIT     0.049     0  01:44      0.46    0.08    0.78
  27                   CONDUIT     0.050     0  01:20      0.47    0.08    0.88
  28                   CONDUIT     0.051     0  01:01      0.47    0.08    0.98
  29                   CONDUIT     0.050     0  00:40      0.41    0.08    1.00
  30                   CONDUIT     0.033     0  00:34      0.24    0.05    1.00
  31                   CONDUIT     0.016     0  01:39      0.29    0.03    0.38
  32                   CONDUIT     0.030     0  01:55      0.36    0.05    0.48
  33                   CONDUIT     0.042     0  01:59      0.42    0.07    0.58
  34                   CONDUIT     0.050     0  02:03      0.45    0.08    0.68
  35                   CONDUIT     0.057     0  01:39      0.48    0.09    0.78
  36                   CONDUIT     0.061     0  01:17      0.49    0.10    0.88
  37                   CONDUIT     0.065     0  01:00      0.50    0.10    0.98
  38                   CONDUIT     0.066     0  00:45      0.49    0.11    1.00
  39                   CONDUIT     0.059     0  00:37      0.40    0.10    1.00
  40                   CONDUIT     0.035     0  00:35      0.24    0.06    1.00
  41                   CONDUIT     0.017     0  01:43      0.29    0.03    0.48
  42                   CONDUIT     0.032     0  01:58      0.37    0.05    0.58
  43                   CONDUIT     0.046     0  02:02      0.42    0.07    0.68
  44                   CONDUIT     0.057     0  01:32      0.47    0.09    0.78
  45                   CONDUIT     0.065     0  01:08      0.49    0.11    0.88
  46                   CONDUIT     0.072     0  00:55      0.51    0.12    0.98
  47                   CONDUIT     0.077     0  00:48      0.52    0.12    1.00
  48                   CONDUIT     0.077     0  00:40      0.50    0.13    1.00
  49                   CONDUIT     0.064     0  00:35      0.39    0.10    1.00
  50                   CONDUIT     0.035     0  00:33      0.24    0.06    1.00
  51                   CONDUIT     0.017     0  01:48      0.29    0.03    0.58
  52                   CONDUIT     0.033     0  02:02      0.37    0.05    0.68
  53                   CONDUIT     0.048     0  01:32      0.43    0.08    0.78
  54                   CONDUIT     0.061     0  00:59      0.47    0.10    0.88
  55                   CONDUIT     0.072     0  00:53      0.50    0.12    0.98
  56                   CONDUIT     0.080     0  00:48      0.52    0.13    1.00
  57                   CONDUIT     0.085     0  00:42      0.53    0.14    1.00
  58                   CONDUIT     0.083     0  00:37      0.50    0.13    1.00
  59                   CONDUIT     0.064     0  00:33      0.39    0.10    1.00
  60                   CONDUIT     0.032     0  00:31      0.24    0.05    1.00
  61                   CONDUIT     0.017     0  01:52      0.29    0.03    0.68
  62                   CONDUIT     0.034     0  01:35      0.37    0.06    0.78
  63                   CONDUIT     0.051     0  06:00      0.43    0.08    0.88
  64                   CONDUIT     0.068     0  06:00      0.47    0.11    0.98
  65                   CONDUIT     0.084     0  06:00      0.51    0.14    1.00
  66                   CONDUIT     0.100     0  06:00      0.53    0.16    1.00
  67                   CONDUIT     0.108     0  06:00      0.54    0.18    1.00
  68                   CONDUIT     0.104     0  06:00      0.49    0.17    1.00
  69                   CONDUIT     0.082     0  06:00      0.39    0.13    1.00
  70                   CONDUIT     0.044     0  06:00      0.24    0.07    1.00
  71                   CONDUIT     0.018     0  06:00      0.29    0.03    0.78
  72                   CONDUIT     0.037     0  06:00      0.37    0.06    0.88
  73                   CONDUIT     0.057     0  05:59      0.43    0.09    0.98
  74                   CONDUIT     0.076     0  06:00      0.47    0.12    1.00
  75                   CONDUIT     0.101     0  06:00      0.51    0.16    1.00
  76                   CONDUIT     0.126     0  06:00      0.53    0.20    1.00
  77                   CONDUIT     0.147     0  06:00      0.53    0.24    1.00
  78                   CONDUIT     0.156     0  06:00      0.49    0.25    1.00
  79                   CONDUIT     0.137     0  06:00      0.39    0.22    1.00
  80                   CONDUIT     0.081     0  06:00      0.24    0.13    1.00
  81                   CONDUIT     0.019     0  05:59      0.29    0.03    0.88
  82                   CONDUIT     0.039     0  06:00      0.37    0.06    0.98
  83                   CONDUIT     0.058     0  06:00      0.43    0.09    1.00
  84                   CONDUIT     0.084     0  06:00      0.47    0.14    1.00
  85                   CONDUIT     0.114     0  06:00      0.50    0.18    1.00
  86                   CONDUIT     0.148     0  06:00      0.53    0.24    1.00
  87                   CONDUIT     0.187     0  06:00      0.53    0.30    1.00
  88                   CONDUIT     0.223     0  06:00      0.48    0.36    1.00
  89                   CONDUIT     0.232     0  06:00      0.39    0.38    1.00
  90                   CONDUIT     0.166     0  06:00      0.24    0.27    1.00
  91                   CONDUIT     0.019     0  05:59      0.29    0.03    0.98
  92                   CONDUIT     0.041     0  00:45      0.36    0.07    1.00
  93                   CONDUIT     0.071     0  00:42      0.43    0.11    1.00
  94                   CONDUIT     0.104     0  00:40      0.49    0.17    1.00
  95                   CONDUIT     0.136     0  00:38      0.55    0.22    1.00
  96                   CONDUIT     0.161     0  06:00      0.59    0.26    1.00
  97                   CONDUIT     0.217     0  06:00      0.59    0.35    1.00
  98                   CONDUIT     0.290     0  06:00      0.54    0.47    1.00
  99                   CONDUIT     0.373     0  06:00      0.48    0.61    1.00
  100                  CONDUIT     0.382     0  06:00      0.49    0.62    1.00
  
  
  ***************************
  Flow Classification Summary
  ***************************
  
  -------------------------------------------------------------------------------------
                      Adjusted    ---------- Fraction of Time in Flow Class ---------- 
                       /Actual         Up    Down  Sub   Sup   Up    Down  Norm  Inlet 
  Conduit               Length    Dry  Dry   Dry   Crit  Crit  Crit  Crit  Ltd   Ctrl  
  -------------------------------------------------------------------------------------
  121                     1.00   0.00  0.00  0.00  1.00  0.00  0.00  0.00  0.99  0.00
  122                     1.00   0.00  0.00  0.00  1.00  0.00  0.00  0.00  0.89  0.00
  123                     1.00   0.00  0.00  0.00  1.00  0.00  0.00  0.00  0.75  0.00
  124                     1.00   0.00  0.00  0.00  1.00  0.00  0.00  0.00  0.62  0.00
  125                     1.00   0.00  0.00  0.00  1.00  0.00  0.00  0.00  0.50  0.00
  126                     1.00   0.00  0.00  0.00  1.00  0.00  0.00  0.00  0.39  0.00
  127                     1.00   0.00  0.00  0.00  1.00  0.00  0.00  0.00  0.30  0.00
  128                     1.00   0.00  0.00  0.00  1.00  0.00  0.00  0.00  0.21  0.00
  129                     1.00   0.00  0.00  0.00  1.00  0.00  0.00  0.00  0.13  0.00
  130                     1.00   0.00  0.00  0.00  1.00  0.00  0.00  0.00  0.10  0.00
  131                     1.00   0.00  0.00  0.00  1.00  0.00  0.00  0.00  0.89  0.00
  132                     1.00   0.00  0.00  0.00  1.00  0.00  0.00  0.00  0.76  0.00
  133                     1.00   0.00  0.00  0.00  1.00  0.00  0.00  0.00  0.63  0.00
  134                     1.00   0.00  0.00  0.00  1.00  0.00  0.00  0.00  0.51  0.00
  135                     1.00   0.00  0.00  0.00  1.00  0.00  0.00  0.00  0.41  0.00
  136                     1.00   0.00  0.00  0.00  1.00  0.00  0.00  0.00  0.31  0.00
  137                     1.00   0.00  0.00  0.00  1.00  0.00  0.00  0.00  0.22  0.00
  138                     1.00   0.00  0.00  0.00  1.00  0.00  0.00  0.00  0.14  0.00
  139                     1.00   0.00  0.00  0.00  1.00  0.00  0.00  0.00  0.12  0.00
  140                     1.00   0.00  0.00  0.00  1.00  0.00  0.00  0.00  0.03  0.00
  141                     1.00   0.00  0.00  0.00  1.00  0.00  0.00  0.00  0.75  0.00
  142                     1.00   0.00  0.00  0.00  1.00  0.00  0.00  0.00  0.63  0.00
  143                     1.00   0.00  0.00  0.00  1.00  0.00  0.00  0.00  0.51  0.00
  144                     1.00   0.00  0.00  0.00  1.00  0.00  0.00  0.00  0.41  0.00
  145                     1.00   0.00  0.00  0.00  1.00  0.00  0.00  0.00  0.31  0.00
  146                     1.00   0.00  0.00  0.00  1.00  0.00  0.00  0.00  0.22  0.00
  147                     1.00   0.00  0.00  0.00  1.00  0.00  0.00  0.00  0.15  0.00
  148                     1.00   0.00  0.00  0.00  1.00  0.00  0.00  0.00  0.09  0.00
  149                     1.00   0.00  0.00  0.00  1.00  0.00  0.00  0.00  0.04  0.00
  150                     1.00   0.00  0.00  0.00  1.00  0.00  0.00  0.00  0.03  0.00
  151                     1.00   0.00  0.00  0.00  1.00  0.00  0.00  0.00  0.62  0.00
  152                     1.00   0.00  0.00  0.00  1.00  0.00  0.00  0.00  0.51  0.00
  153                     1.00   0.00  0.00  0.00  1.00  0.00  0.00  0.00  0.41  0.00
  154                     1.00   0.00  0.00  0.00  1.00  0.00  0.00  0.00  0.31  0.00
  155                     1.00   0.00  0.00  0.00  1.00  0.00  0.00  0.00  0.22  0.00
  156                     1.00   0.00  0.00  0.00  1.00  0.00  0.00  0.00  0.14  0.00
  157                     1.00   0.00  0.00  0.00  1.00  0.00  0.00  0.00  0.08  0.00
  158                     1.00   0.00  0.00  0.00  1.00  0.00  0.00  0.00  0.04  0.00
  159                     1.00   0.00  0.00  0.00  1.00  0.00  0.00  0.00  0.02  0.00
  160                     1.00   0.00  0.00  0.00  1.00  0.00  0.00  0.00  0.03  0.00
  161                     1.00   0.00  0.00  0.00  1.00  0.00  0.00  0.00  0.51  0.00
  162                     1.00   0.00  0.00  0.00  1.00  0.00  0.00  0.00  0.41  0.00
  163                     1.00   0.00  0.00  0.00  1.00  0.00  0.00  0.00  0.31  0.00
  164                     1.00   0.00  0.00  0.00  1.00  0.00  0.00  0.00  0.21  0.00
  165                     1.00   0.00  0.00  0.00  1.00  0.00  0.00  0.00  0.13  0.00
  166                     1.00   0.00  0.00  0.00  1.00  0.00  0.00  0.00  0.01  0.00
  167                     1.00   0.00  0.00  0.00  1.00  0.00  0.00  0.00  0.00  0.00
  168                     1.00   0.00  0.00  0.00  1.00  0.00  0.00  0.00  0.00  0.00
  169                     1.00   0.00  0.00  0.00  1.00  0.00  0.00  0.00  0.02  0.00
  170                     1.00   0.00  0.00  0.00  1.00  0.00  0.00  0.00  0.03  0.00
  171                     1.00   0.00  0.00  0.00  1.00  0.00  0.00  0.00  0.41  0.00
  172                     1.00   0.00  0.00  0.00  1.00  0.00  0.00  0.00  0.32  0.00
  173                     1.00   0.00  0.00  0.00  1.00  0.00  0.00  0.00  0.22  0.00
  174                     1.00   0.00  0.00  0.00  1.00  0.00  0.00  0.00  0.06  0.00
  175                     1.00   0.00  0.00  0.00  1.00  0.00  0.00  0.00  0.02  0.00
  176                     1.00   0.00  0.00  0.00  1.00  0.00  0.00  0.00  0.00  0.00
  177                     1.00   0.00  0.00  0.00  1.00  0.00  0.00  0.00  0.00  0.00
  178                     1.00   0.00  0.00  0.00  1.00  0.00  0.00  0.00  0.00  0.00
  179                     1.00   0.00  0.00  0.00  1.00  0.00  0.00  0.00  0.01  0.00
  180                     1.00   0.00  0.00  0.00  1.00  0.00  0.00  0.00  0.03  0.00
  181                     1.00   0.00  0.00  0.00  1.00  0.00  0.00  0.00  0.32  0.00
  182                     1.00   0.00  0.00  0.00  1.00  0.00  0.00  0.00  0.24  0.00
  183                     1.00   0.00  0.00  0.00  1.00  0.00  0.00  0.00  0.16  0.00
  184                     1.00   0.00  0.00  0.00  1.00  0.00  0.00  0.00  0.04  0.00
  185                     1.00   0.00  0.00  0.00  1.00  0.00  0.00  0.00  0.00  0.00
  186                     1.00   0.00  0.00  0.00  1.00  0.00  0.00  0.00  0.00  0.00
  187                     1.00   0.00  0.00  0.00  1.00  0.00  0.00  0.00  0.00  0.00
  188                     1.00   0.00  0.00  0.00  1.00  0.00  0.00  0.00  0.00  0.00
  189                     1.00   0.00  0.00  0.00  1.00  0.00  0.00  0.00  0.01  0.00
  190                     1.00   0.00  0.00  0.00  1.00  0.00  0.00  0.00  0.03  0.00
  191                     1.00   0.00  0.00  0.00  1.00  0.00  0.00  0.00  0.25  0.00
  192                     1.00   0.00  0.00  0.00  1.00  0.00  0.00  0.00  0.18  0.00
  193                     1.00   0.00  0.00  0.00  1.00  0.00  0.00  0.00  0.11  0.00
  194                     1.00   0.00  0.00  0.00  1.00  0.00  0.00  0.00  0.03  0.00
  195                     1.00   0.00  0.00  0.00  1.00  0.00  0.00  0.00  0.00  0.00
  196                     1.00   0.00  0.00  0.00  1.00  0.00  0.00  0.00  0.00  0.00
  197                     1.00   0.00  0.00  0.00  1.00  0.00  0.00  0.00  0.00  0.00
  198                     1.00   0.00  0.00  0.00  1.00  0.00  0.00  0.00  0.01  0.00
  199                     1.00   0.00  0.00  0.00  1.00  0.00  0.00  0.00  0.01  0.00
  200                     1.00   0.00  0.00  0.00  1.00  0.00  0.00  0.00  0.03  0.00
  201                     1.00   0.00  0.00  0.00  1.00  0.00  0.00  0.00  0.19  0.00
  202                     1.00   0.00  0.00  0.00  1.00  0.00  0.00  0.00  0.13  0.00
  203                     1.00   0.00  0.00  0.00  1.00  0.00  0.00  0.00  0.05  0.00
  204                     1.00   0.00  0.00  0.00  1.00  0.00  0.00  0.00  0.02  0.00
  205                     1.00   0.00  0.00  0.00  1.00  0.00  0.00  0.00  0.00  0.00
  206                     1.00   0.00  0.00  0.00  1.00  0.00  0.00  0.00  0.00  0.00
  207                     1.00   0.00  0.00  0.00  1.00  0.00  0.00  0.00  0.00  0.00
  208                     1.00   0.00  0.00  0.00  1.00  0.00  0.00  0.00  0.00  0.00
  209                     1.00   0.00  0.00  0.00  1.00  0.00  0.00  0.00  0.01  0.00
  210                     1.00   0.00  0.00  0.00  1.00  0.00  0.00  0.00  0.03  0.00
  211                     1.00   0.00  0.00  0.00  1.00  0.00  0.00  0.00  0.11  0.00
  212                     1.00   0.00  0.00  0.00  1.00  0.00  0.00  0.00  0.04  0.00
  213                     1.00   0.00  0.00  0.00  1.00  0.00  0.00  0.00  0.02  0.00
  214                     1.00   0.00  0.00  0.00  1.00  0.00  0.00  0.00  0.00  0.00
  215                     1.00   0.00  0.00  0.00  1.00  0.00  0.00  0.00  0.00  0.00
  216                     1.00   0.00  0.00  0.00  1.00  0.00  0.00  0.00  0.00  0.00
  217                     1.00   0.00  0.00  0.00  1.00  0.00  0.00  0.00  0.00  0.00
  218                     1.00   0.00  0.00  0.00  1.00  0.00  0.00  0.00  0.00  0.00
  219                     1.00   0.00  0.00  0.00  1.00  0.00  0.00  0.00  0.01  0.00
  220                     1.00   0.00  0.00  0.00  1.00  0.00  0.00  0.00  0.03  0.00
  221                     1.00   0.00  0.00  0.00  1.00  0.00  0.00  0.00  0.02  0.00
  222                     1.00   0.00  0.00  0.00  1.00  0.00  0.00  0.00  0.01  0.00
  223                     1.00   0.00  0.00  0.00  1.00  0.00  0.00  0.00  0.00  0.00
  224                     1.00   0.00  0.00  0.00  1.00  0.00  0.00  0.00  0.00  0.00
  225                     1.00   0.00  0.00  0.00  1.00  0.00  0.00  0.00  0.00  0.00
  226                     1.00   0.00  0.00  0.00  1.00  0.00  0.00  0.00  0.00  0.00
  227                     1.00   0.00  0.00  0.00  1.00  0.00  0.00  0.00  0.00  0.00
  228                     1.00   0.00  0.00  0.00  1.00  0.00  0.00  0.00  0.00  0.00
  229                     1.00   0.00  0.00  0.00  1.00  0.00  0.00  0.00  0.00  0.00
  230                     1.00   0.00  0.00  0.00  1.00  0.00  0.00  0.00  0.02  0.00
  231                     1.00   0.00  0.00  0.00  1.00  0.00  0.00  0.00  0.02  0.00
  232                     1.00   0.00  0.00  0.00  1.00  0.00  0.00  0.00  0.01  0.00
  233                     1.00   0.00  0.00  0.00  1.00  0.00  0.00  0.00  0.00  0.00
  234                     1.00   0.00  0.00  0.00  1.00  0.00  0.00  0.00  0.00  0.00
  235                     1.00   0.00  0.00  0.00  1.00  0.00  0.00  0.00  0.00  0.00
  236                     1.00   0.00  0.00  0.00  1.00  0.00  0.00  0.00  0.00  0.00
  237                     1.00   0.00  0.00  0.00  1.00  0.00  0.00  0.00  0.00  0.00
  238                     1.00   0.00  0.00  0.00  1.00  0.00  0.00  0.00  0.00  0.00
  239                     1.00   0.00  0.00  0.00  1.00  0.00  0.00  0.00  0.00  0.00
  240                     1.00   0.00  0.00  0.00  1.00  0.00  0.00  0.00  0.02  0.00
  241                     1.00   0.00  0.00  0.00  1.00  0.00  0.00  0.00  0.00  0.00
  1                       1.00   0.00  0.00  0.00  1.00  0.00  0.00  0.00  0.99  0.00
  2                       1.00   0.00  0.00  0.00  1.00  0.00  0.00  0.00  0.89  0.00
  3                       1.00   0.00  0.00  0.00  1.00  0.00  0.00  0.00  0.75  0.00
  4                       1.00   0.00  0.00  0.00  1.00  0.00  0.00  0.00  0.62  0.00
  5                       1.00   0.00  0.00  0.00  1.00  0.00  0.00  0.00  0.50  0.00
  6                       1.00   0.00  0.00  0.00  1.00  0.00  0.00  0.00  0.39  0.00
  7                       1.00   0.00  0.00  0.00  1.00  0.00  0.00  0.00  0.30  0.00
  8                       1.00   0.00  0.00  0.00  1.00  0.00  0.00  0.00  0.21  0.00
  9                       1.00   0.00  0.00  0.00  1.00  0.00  0.00  0.00  0.13  0.00
  10                      1.00   0.00  0.00  0.00  1.00  0.00  0.00  0.00  0.10  0.00
  11                      1.00   0.00  0.00  0.00  1.00  0.00  0.00  0.00  0.89  0.00
  12                      1.00   0.00  0.00  0.00  1.00  0.00  0.00  0.00  0.76  0.00
  13                      1.00   0.00  0.00  0.00  1.00  0.00  0.00  0.00  0.63  0.00
  14                      1.00   0.00  0.00  0.00  1.00  0.00  0.00  0.00  0.51  0.00
  15                      1.00   0.00  0.00  0.00  1.00  0.00  0.00  0.00  0.41  0.00
  16                      1.00   0.00  0.00  0.00  1.00  0.00  0.00  0.00  0.31  0.00
  17                      1.00   0.00  0.00  0.00  1.00  0.00  0.00  0.00  0.22  0.00
  18                      1.00   0.00  0.00  0.00  1.00  0.00  0.00  0.00  0.14  0.00
  19                      1.00   0.00  0.00  0.00  1.00  0.00  0.00  0.00  0.12  0.00
  20                      1.00   0.00  0.00  0.00  1.00  0.00  0.00  0.00  0.03  0.00
  21                      1.00   0.00  0.00  0.00  1.00  0.00  0.00  0.00  0.75  0.00
  22                      1.00   0.00  0.00  0.00  1.00  0.00  0.00  0.00  0.63  0.00
  23                      1.00   0.00  0.00  0.00  1.00  0.00  0.00  0.00  0.51  0.00
  24                      1.00   0.00  0.00  0.00  1.00  0.00  0.00  0.00  0.41  0.00
  25                      1.00   0.00  0.00  0.00  1.00  0.00  0.00  0.00  0.31  0.00
  26                      1.00   0.00  0.00  0.00  1.00  0.00  0.00  0.00  0.22  0.00
  27                      1.00   0.00  0.00  0.00  1.00  0.00  0.00  0.00  0.15  0.00
  28                      1.00   0.00  0.00  0.00  1.00  0.00  0.00  0.00  0.09  0.00
  29                      1.00   0.00  0.00  0.00  1.00  0.00  0.00  0.00  0.04  0.00
  30                      1.00   0.00  0.00  0.00  1.00  0.00  0.00  0.00  0.03  0.00
  31                      1.00   0.00  0.00  0.00  1.00  0.00  0.00  0.00  0.62  0.00
  32                      1.00   0.00  0.00  0.00  1.00  0.00  0.00  0.00  0.51  0.00
  33                      1.00   0.00  0.00  0.00  1.00  0.00  0.00  0.00  0.41  0.00
  34                      1.00   0.00  0.00  0.00  1.00  0.00  0.00  0.00  0.31  0.00
  35                      1.00   0.00  0.00  0.00  1.00  0.00  0.00  0.00  0.22  0.00
  36                      1.00   0.00  0.00  0.00  1.00  0.00  0.00  0.00  0.14  0.00
  37                      1.00   0.00  0.00  0.00  1.00  0.00  0.00  0.00  0.08  0.00
  38                      1.00   0.00  0.00  0.00  1.00  0.00  0.00  0.00  0.04  0.00
  39                      1.00   0.00  0.00  0.00  1.00  0.00  0.00  0.00  0.02  0.00
  40                      1.00   0.00  0.00  0.00  1.00  0.00  0.00  0.00  0.03  0.00
  41                      1.00   0.00  0.00  0.00  1.00  0.00  0.00  0.00  0.51  0.00
  42                      1.00   0.00  0.00  0.00  1.00  0.00  0.00  0.00  0.41  0.00
  43                      1.00   0.00  0.00  0.00  1.00  0.00  0.00  0.00  0.31  0.00
  44                      1.00   0.00  0.00  0.00  1.00  0.00  0.00  0.00  0.21  0.00
  45                      1.00   0.00  0.00  0.00  1.00  0.00  0.00  0.00  0.13  0.00
  46                      1.00   0.00  0.00  0.00  1.00  0.00  0.00  0.00  0.01  0.00
  47                      1.00   0.00  0.00  0.00  1.00  0.00  0.00  0.00  0.00  0.00
  48                      1.00   0.00  0.00  0.00  1.00  0.00  0.00  0.00  0.00  0.00
  49                      1.00   0.00  0.00  0.00  1.00  0.00  0.00  0.00  0.02  0.00
  50                      1.00   0.00  0.00  0.00  1.00  0.00  0.00  0.00  0.03  0.00
  51                      1.00   0.00  0.00  0.00  1.00  0.00  0.00  0.00  0.41  0.00
  52                      1.00   0.00  0.00  0.00  1.00  0.00  0.00  0.00  0.32  0.00
  53                      1.00   0.00  0.00  0.00  1.00  0.00  0.00  0.00  0.22  0.00
  54                      1.00   0.00  0.00  0.00  1.00  0.00  0.00  0.00  0.06  0.00
  55                      1.00   0.00  0.00  0.00  1.00  0.00  0.00  0.00  0.02  0.00
  56                      1.00   0.00  0.00  0.00  1.00  0.00  0.00  0.00  0.00  0.00
  57                      1.00   0.00  0.00  0.00  1.00  0.00  0.00  0.00  0.00  0.00
  58                      1.00   0.00  0.00  0.00  1.00  0.00  0.00  0.00  0.00  0.00
  59                      1.00   0.00  0.00  0.00  1.00  0.00  0.00  0.00  0.01  0.00
  60                      1.00   0.00  0.00  0.00  1.00  0.00  0.00  0.00  0.03  0.00
  61                      1.00   0.00  0.00  0.00  1.00  0.00  0.00  0.00  0.32  0.00
  62                      1.00   0.00  0.00  0.00  1.00  0.00  0.00  0.00  0.24  0.00
  63                      1.00   0.00  0.00  0.00  1.00  0.00  0.00  0.00  0.16  0.00
  64                      1.00   0.00  0.00  0.00  1.00  0.00  0.00  0.00  0.04  0.00
  65                      1.00   0.00  0.00  0.00  1.00  0.00  0.00  0.00  0.00  0.00
  66                      1.00   0.00  0.00  0.00  1.00  0.00  0.00  0.00  0.00  0.00
  67                      1.00   0.00  0.00  0.00  1.00  0.00  0.00  0.00  0.00  0.00
  68                      1.00   0.00  0.00  0.00  1.00  0.00  0.00  0.00  0.00  0.00
  69                      1.00   0.00  0.00  0.00  1.00  0.00  0.00  0.00  0.01  0.00
  70                      1.00   0.00  0.00  0.00  1.00  0.00  0.00  0.00  0.03  0.00
  71                      1.00   0.00  0.00  0.00  1.00  0.00  0.00  0.00  0.25  0.00
  72                      1.00   0.00  0.00  0.00  1.00  0.00  0.00  0.00  0.18  0.00
  73                      1.00   0.00  0.00  0.00  1.00  0.00  0.00  0.00  0.11  0.00
  74                      1.00   0.00  0.00  0.00  1.00  0.00  0.00  0.00  0.03  0.00
  75                      1.00   0.00  0.00  0.00  1.00  0.00  0.00  0.00  0.00  0.00
  76                      1.00   0.00  0.00  0.00  1.00  0.00  0.00  0.00  0.00  0.00
  77                      1.00   0.00  0.00  0.00  1.00  0.00  0.00  0.00  0.00  0.00
  78                      1.00   0.00  0.00  0.00  1.00  0.00  0.00  0.00  0.01  0.00
  79                      1.00   0.00  0.00  0.00  1.00  0.00  0.00  0.00  0.01  0.00
  80                      1.00   0.00  0.00  0.00  1.00  0.00  0.00  0.00  0.03  0.00
  81                      1.00   0.00  0.00  0.00  1.00  0.00  0.00  0.00  0.19  0.00
  82                      1.00   0.00  0.00  0.00  1.00  0.00  0.00  0.00  0.13  0.00
  83                      1.00   0.00  0.00  0.00  1.00  0.00  0.00  0.00  0.05  0.00
  84                      1.00   0.00  0.00  0.00  1.00  0.00  0.00  0.00  0.02  0.00
  85                      1.00   0.00  0.00  0.00  1.00  0.00  0.00  0.00  0.00  0.00
  86                      1.00   0.00  0.00  0.00  1.00  0.00  0.00  0.00  0.00  0.00
  87                      1.00   0.00  0.00  0.00  1.00  0.00  0.00  0.00  0.00  0.00
  88                      1.00   0.00  0.00  0.00  1.00  0.00  0.00  0.00  0.00  0.00
  89                      1.00   0.00  0.00  0.00  1.00  0.00  0.00  0.00  0.01  0.00
  90                      1.00   0.00  0.00  0.00  1.00  0.00  0.00  0.00  0.03  0.00
  91                      1.00   0.00  0.00  0.00  1.00  0.00  0.00  0.00  0.11  0.00
  92                      1.00   0.00  0.00  0.00  1.00  0.00  0.00  0.00  0.04  0.00
  93                      1.00   0.00  0.00  0.00  1.00  0.00  0.00  0.00  0.02  0.00
  94                      1.00   0.00  0.00  0.00  1.00  0.00  0.00  0.00  0.00  0.00
  95                      1.00   0.00  0.00  0.00  1.00  0.00  0.00  0.00  0.00  0.00
  96                      1.00   0.00  0.00  0.00  1.00  0.00  0.00  0.00  0.00  0.00
  97                      1.00   0.00  0.00  0.00  1.00  0.00  0.00  0.00  0.00  0.00
  98                      1.00   0.00  0.00  0.00  1.00  0.00  0.00  0.00  0.00  0.00
  99                      1.00   0.00  0.00  0.00  1.00  0.00  0.00  0.00  0.01  0.00
  100                     1.00   0.00  0.00  0.00  1.00  0.00  0.00  0.00  0.03  0.00
  
  
  *************************
  Conduit Surcharge Summary
  *************************
  
  ----------------------------------------------------------------------------
                                                           Hours        Hours 
                         --------- Hours Full --------   Above Full   Capacity
  Conduit                Both Ends  Upstream  Dnstream   Normal Flow   Limited
  ----------------------------------------------------------------------------
  130                         0.01      0.01      0.28      0.01         0.01
  139                         0.01      0.01      0.28      0.01         0.01
  140                         0.28      0.28      1.14      0.01         0.01
  148                         0.01      0.01      0.28      0.01         0.01
  149                         0.28      0.28      1.13      0.01         0.01
  150                         1.13      1.13      1.91      0.01         0.01
  157                         0.01      0.01      0.27      0.01         0.01
  158                         0.27      0.27      1.13      0.01         0.01
  159                         1.13      1.13      1.90      0.01         0.01
  160                         1.90      1.90      2.60      0.01         0.01
  166                         0.01      0.01      0.27      0.01         0.01
  167                         0.27      0.27      1.12      0.01         0.01
  168                         1.12      1.12      1.89      0.01         0.01
  169                         1.89      1.89      2.59      0.01         0.01
  170                         2.59      2.59      3.21      0.01         0.01
  175                         0.01      0.01      0.26      0.01         0.01
  176                         0.26      0.26      1.11      0.01         0.01
  177                         1.11      1.11      1.88      0.01         0.01
  178                         1.88      1.88      2.58      0.01         0.01
  179                         2.58      2.58      3.20      0.01         0.01
  180                         3.20      3.20      3.74      0.01         0.01
  184                         0.01      0.01      0.27      0.01         0.01
  185                         0.27      0.27      1.11      0.01         0.01
  186                         1.11      1.11      1.88      0.01         0.01
  187                         1.88      1.88      2.56      0.01         0.01
  188                         2.56      2.56      3.18      0.01         0.01
  189                         3.18      3.18      3.72      0.01         0.01
  190                         3.72      3.72      4.20      0.01         0.01
  193                         0.01      0.01      0.27      0.01         0.01
  194                         0.27      0.27      1.12      0.01         0.01
  195                         1.12      1.12      1.88      0.01         0.01
  196                         1.88      1.88      2.56      0.01         0.01
  197                         2.56      2.56      3.17      0.01         0.01
  198                         3.17      3.17      3.70      0.01         0.01
  199                         3.70      3.70      4.17      0.01         0.01
  200                         4.17      4.17      4.59      0.01         0.01
  202                         0.01      0.01      0.28      0.01         0.01
  203                         0.28      0.28      1.13      0.01         0.01
  204                         1.13      1.13      1.89      0.01         0.01
  205                         1.89      1.89      2.58      0.01         0.01
  206                         2.58      2.58      3.18      0.01         0.01
  207                         3.18      3.18      3.70      0.01         0.01
  208                         3.70      3.70      4.16      0.01         0.01
  209                         4.16      4.16      4.56      0.01         0.01
  210                         4.56      4.56      4.89      0.01         0.01
  211                         0.01      0.01      0.28      0.01         0.01
  212                         0.28      0.28      1.13      0.01         0.01
  213                         1.13      1.13      1.90      0.01         0.01
  214                         1.90      1.90      2.59      0.01         0.01
  215                         2.59      2.59      3.20      0.01         0.01
  216                         3.20      3.20      3.72      0.01         0.01
  217                         3.72      3.72      4.17      0.01         0.01
  218                         4.17      4.17      4.56      0.01         0.01
  219                         4.56      4.56      4.85      0.01         0.01
  220                         4.85      4.85      5.08      0.01         0.01
  221                         0.28      0.28      1.14      0.01         0.01
  222                         1.14      1.14      1.91      0.01         0.01
  223                         1.91      1.91      2.60      0.01         0.01
  224                         2.60      2.60      3.21      0.01         0.01
  225                         3.21      3.21      3.74      0.01         0.01
  226                         3.74      3.74      4.20      0.01         0.01
  227                         4.20      4.20      4.59      0.01         0.01
  228                         4.59      4.59      4.89      0.01         0.01
  229                         4.89      4.89      5.08      0.01         0.01
  230                         5.08      5.08      5.16      4.74         4.66
  231                         0.28      0.28      1.14      0.01         0.01
  232                         1.14      1.14      1.91      0.01         0.01
  233                         1.91      1.91      2.60      0.01         0.01
  234                         2.60      2.60      3.21      0.01         0.01
  235                         3.21      3.21      3.74      0.01         0.01
  236                         3.74      3.74      4.20      0.01         0.01
  237                         4.20      4.20      4.59      0.01         0.01
  238                         4.59      4.59      4.89      0.01         0.01
  239                         4.89      4.89      5.08      0.01         0.01
  240                         5.08      5.08      5.16      4.74         4.66
  241                         0.01      5.16      0.01      5.85         3.74
  10                          0.01      0.01      0.28      0.01         0.01
  19                          0.01      0.01      0.28      0.01         0.01
  20                          0.28      0.28      1.14      0.01         0.01
  28                          0.01      0.01      0.28      0.01         0.01
  29                          0.28      0.28      1.13      0.01         0.01
  30                          1.13      1.13      1.91      0.01         0.01
  37                          0.01      0.01      0.27      0.01         0.01
  38                          0.27      0.27      1.13      0.01         0.01
  39                          1.13      1.13      1.90      0.01         0.01
  40                          1.90      1.90      2.60      0.01         0.01
  46                          0.01      0.01      0.27      0.01         0.01
  47                          0.27      0.27      1.12      0.01         0.01
  48                          1.12      1.12      1.89      0.01         0.01
  49                          1.89      1.89      2.59      0.01         0.01
  50                          2.59      2.59      3.21      0.01         0.01
  55                          0.01      0.01      0.26      0.01         0.01
  56                          0.26      0.26      1.11      0.01         0.01
  57                          1.11      1.11      1.88      0.01         0.01
  58                          1.88      1.88      2.58      0.01         0.01
  59                          2.58      2.58      3.20      0.01         0.01
  60                          3.20      3.20      3.74      0.01         0.01
  64                          0.01      0.01      0.27      0.01         0.01
  65                          0.27      0.27      1.11      0.01         0.01
  66                          1.11      1.11      1.88      0.01         0.01
  67                          1.88      1.88      2.56      0.01         0.01
  68                          2.56      2.56      3.18      0.01         0.01
  69                          3.18      3.18      3.72      0.01         0.01
  70                          3.72      3.72      4.20      0.01         0.01
  73                          0.01      0.01      0.27      0.01         0.01
  74                          0.27      0.27      1.12      0.01         0.01
  75                          1.12      1.12      1.88      0.01         0.01
  76                          1.88      1.88      2.56      0.01         0.01
  77                          2.56      2.56      3.17      0.01         0.01
  78                          3.17      3.17      3.70      0.01         0.01
  79                          3.70      3.70      4.17      0.01         0.01
  80                          4.17      4.17      4.59      0.01         0.01
  82                          0.01      0.01      0.28      0.01         0.01
  83                          0.28      0.28      1.13      0.01         0.01
  84                          1.13      1.13      1.89      0.01         0.01
  85                          1.89      1.89      2.58      0.01         0.01
  86                          2.58      2.58      3.18      0.01         0.01
  87                          3.18      3.18      3.70      0.01         0.01
  88                          3.70      3.70      4.16      0.01         0.01
  89                          4.16      4.16      4.56      0.01         0.01
  90                          4.56      4.56      4.89      0.01         0.01
  91                          0.01      0.01      0.28      0.01         0.01
  92                          0.28      0.28      1.13      0.01         0.01
  93                          1.13      1.13      1.90      0.01         0.01
  94                          1.90      1.90      2.59      0.01         0.01
  95                          2.59      2.59      3.20      0.01         0.01
  96                          3.20      3.20      3.72      0.01         0.01
  97                          3.72      3.72      4.17      0.01         0.01
  98                          4.17      4.17      4.56      0.01         0.01
  99                          4.56      4.56      4.85      0.01         0.01
  100                         4.85      4.85      5.08      0.01         0.01
  

  Analysis begun on:  Mon Nov 28 18:10:04 2022
  Analysis ended on:  Mon Nov 28 18:10:06 2022
  Total elapsed time: 00:00:02