
  EPA STORM WATER MANAGEMENT MODEL - VERSION 5.1 (Build 5.1.015)
  --------------------------------------------------------------

  WARNING 04: minimum elevation drop used for Conduit 241
  
  *********************************************************
  NOTE: The summary statistics displayed in this report are
  based on results found at every computational time step,  
  not just on results from each reporting time step.
  *********************************************************
  
  ****************
  Analysis Options
  ****************
  Flow Units ............... CMS
  Process Models:
    Rainfall/Runoff ........ NO
    RDII ................... NO
    Snowmelt ............... NO
    Groundwater ............ NO
    Flow Routing ........... YES
    Ponding Allowed ........ NO
    Water Quality .......... NO
  Flow Routing Method ...... DYNWAVE
  Surcharge Method ......... SLOT
  Starting Date ............ 10/31/2022 00:00:00
  Ending Date .............. 10/31/2022 06:00:00
  Antecedent Dry Days ...... 0.0
  Report Time Step ......... 00:00:10
  Routing Time Step ........ 1.00 sec
  Variable Time Step ....... NO
  Maximum Trials ........... 8
  Number of Threads ........ 6
  Head Tolerance ........... 0.001500 m
  
  
  **************************        Volume        Volume
  Flow Routing Continuity        hectare-m      10^6 ltr
  **************************     ---------     ---------
  Dry Weather Inflow .......         0.000         0.000
  Wet Weather Inflow .......         0.000         0.000
  Groundwater Inflow .......         0.000         0.000
  RDII Inflow ..............         0.000         0.000
  External Inflow ..........         4.541        45.406
  External Outflow .........         3.526        35.265
  Flooding Loss ............         0.000         0.000
  Evaporation Loss .........         0.000         0.000
  Exfiltration Loss ........         0.000         0.000
  Initial Stored Volume ....         0.000         0.000
  Final Stored Volume ......         0.964         9.640
  Continuity Error (%) .....         1.102
  
  
  *************************
  Highest Continuity Errors
  *************************
  Node D01 (11.93%)
  Node E01 (11.93%)
  Node C01 (11.93%)
  Node F01 (11.92%)
  Node B01 (11.92%)
  
  
  ********************************
  Highest Flow Instability Indexes
  ********************************
  All links are stable.
  
  
  *************************
  Routing Time Step Summary
  *************************
  Minimum Time Step           :     1.00 sec
  Average Time Step           :     1.00 sec
  Maximum Time Step           :     1.00 sec
  Percent in Steady State     :     0.00
  Average Iterations per Step :     2.00
  Percent Not Converging      :     0.00
  
  
  ******************
  Node Depth Summary
  ******************
  
  ---------------------------------------------------------------------------------
                                 Average  Maximum  Maximum  Time of Max    Reported
                                   Depth    Depth      HGL   Occurrence   Max Depth
  Node                 Type       Meters   Meters   Meters  days hr:min      Meters
  ---------------------------------------------------------------------------------
  A00                  JUNCTION     1.16     1.78     2.78     0  03:12        1.78
  A01                  JUNCTION     1.20     1.83     2.78     0  03:12        1.83
  A02                  JUNCTION     1.25     1.88     2.78     0  03:12        1.88
  A03                  JUNCTION     1.30     1.93     2.78     0  03:12        1.93
  A04                  JUNCTION     1.34     1.98     2.78     0  03:11        1.98
  A05                  JUNCTION     1.39     2.03     2.78     0  03:11        2.03
  A06                  JUNCTION     1.43     2.08     2.78     0  03:11        2.08
  A07                  JUNCTION     1.48     2.13     2.78     0  03:11        2.13
  A08                  JUNCTION     1.52     2.17     2.77     0  03:11        2.17
  A09                  JUNCTION     1.57     2.22     2.77     0  03:23        2.22
  A10                  JUNCTION     1.62     2.27     2.77     0  03:22        2.27
  B00                  JUNCTION     1.20     1.83     2.78     0  03:07        1.83
  B01                  JUNCTION     1.25     1.88     2.78     0  03:07        1.88
  B02                  JUNCTION     1.29     1.93     2.78     0  03:07        1.93
  B03                  JUNCTION     1.34     1.98     2.78     0  03:07        1.98
  B04                  JUNCTION     1.39     2.03     2.78     0  03:07        2.03
  B05                  JUNCTION     1.43     2.08     2.78     0  03:07        2.08
  B06                  JUNCTION     1.48     2.13     2.78     0  03:10        2.13
  B07                  JUNCTION     1.52     2.17     2.77     0  03:10        2.17
  B08                  JUNCTION     1.57     2.22     2.77     0  03:10        2.22
  B09                  JUNCTION     1.62     2.27     2.77     0  03:10        2.27
  B10                  JUNCTION     1.66     2.31     2.76     0  03:24        2.31
  C00                  JUNCTION     1.23     1.86     2.76     0  03:08        1.86
  C01                  JUNCTION     1.28     1.91     2.76     0  03:09        1.91
  C02                  JUNCTION     1.33     1.96     2.76     0  03:08        1.96
  C03                  JUNCTION     1.37     2.01     2.76     0  03:08        2.01
  C04                  JUNCTION     1.42     2.06     2.76     0  03:08        2.06
  C05                  JUNCTION     1.47     2.11     2.76     0  03:08        2.11
  C06                  JUNCTION     1.51     2.16     2.76     0  03:11        2.16
  C07                  JUNCTION     1.56     2.21     2.76     0  03:09        2.21
  C08                  JUNCTION     1.61     2.26     2.76     0  03:09        2.26
  C09                  JUNCTION     1.65     2.30     2.75     0  03:11        2.30
  C10                  JUNCTION     1.70     2.35     2.75     0  03:22        2.35
  D00                  JUNCTION     1.25     1.88     2.73     0  03:09        1.88
  D01                  JUNCTION     1.30     1.93     2.73     0  03:09        1.93
  D02                  JUNCTION     1.35     1.98     2.73     0  03:09        1.98
  D03                  JUNCTION     1.40     2.03     2.73     0  03:09        2.03
  D04                  JUNCTION     1.44     2.08     2.73     0  03:09        2.08
  D05                  JUNCTION     1.49     2.13     2.73     0  03:09        2.13
  D06                  JUNCTION     1.54     2.18     2.73     0  03:09        2.18
  D07                  JUNCTION     1.58     2.23     2.73     0  03:09        2.23
  D08                  JUNCTION     1.63     2.27     2.72     0  03:12        2.27
  D09                  JUNCTION     1.68     2.32     2.72     0  03:12        2.32
  D10                  JUNCTION     1.72     2.37     2.72     0  03:21        2.37
  E00                  JUNCTION     1.26     1.87     2.67     0  03:10        1.87
  E01                  JUNCTION     1.31     1.92     2.67     0  03:21        1.92
  E02                  JUNCTION     1.36     1.97     2.67     0  03:10        1.97
  E03                  JUNCTION     1.40     2.02     2.67     0  03:10        2.02
  E04                  JUNCTION     1.45     2.07     2.67     0  03:21        2.07
  E05                  JUNCTION     1.50     2.12     2.67     0  03:21        2.12
  E06                  JUNCTION     1.54     2.17     2.67     0  03:21        2.17
  E07                  JUNCTION     1.59     2.22     2.67     0  03:21        2.22
  E08                  JUNCTION     1.64     2.26     2.66     0  03:24        2.26
  E09                  JUNCTION     1.68     2.31     2.66     0  03:21        2.31
  E10                  JUNCTION     1.73     2.36     2.66     0  03:21        2.36
  F00                  JUNCTION     1.24     1.83     2.58     0  03:11        1.83
  F01                  JUNCTION     1.29     1.88     2.58     0  03:10        1.88
  F02                  JUNCTION     1.34     1.93     2.58     0  03:10        1.93
  F03                  JUNCTION     1.39     1.98     2.58     0  03:10        1.98
  F04                  JUNCTION     1.43     2.03     2.58     0  03:11        2.03
  F05                  JUNCTION     1.48     2.08     2.58     0  03:11        2.08
  F06                  JUNCTION     1.53     2.13     2.58     0  03:10        2.13
  F07                  JUNCTION     1.58     2.18     2.58     0  03:11        2.18
  F08                  JUNCTION     1.62     2.22     2.57     0  03:11        2.22
  F09                  JUNCTION     1.67     2.27     2.57     0  03:11        2.27
  F10                  JUNCTION     1.72     2.32     2.57     0  03:25        2.32
  G00                  JUNCTION     1.20     1.75     2.45     0  03:25        1.75
  G01                  JUNCTION     1.25     1.80     2.45     0  03:25        1.80
  G02                  JUNCTION     1.30     1.85     2.45     0  03:26        1.85
  G03                  JUNCTION     1.34     1.90     2.45     0  03:26        1.90
  G04                  JUNCTION     1.39     1.95     2.45     0  03:26        1.95
  G05                  JUNCTION     1.44     2.00     2.45     0  03:19        2.00
  G06                  JUNCTION     1.49     2.05     2.45     0  03:22        2.05
  G07                  JUNCTION     1.53     2.09     2.44     0  03:19        2.09
  G08                  JUNCTION     1.58     2.14     2.44     0  03:19        2.14
  G09                  JUNCTION     1.63     2.19     2.44     0  03:22        2.19
  G10                  JUNCTION     1.67     2.24     2.44     0  03:22        2.24
  H00                  JUNCTION     1.13     1.62     2.27     0  03:09        1.62
  H01                  JUNCTION     1.17     1.67     2.27     0  03:09        1.67
  H02                  JUNCTION     1.22     1.72     2.27     0  03:09        1.72
  H03                  JUNCTION     1.27     1.77     2.27     0  03:09        1.77
  H04                  JUNCTION     1.32     1.82     2.27     0  03:09        1.82
  H05                  JUNCTION     1.36     1.87     2.27     0  03:21        1.87
  H06                  JUNCTION     1.41     1.92     2.27     0  03:21        1.92
  H07                  JUNCTION     1.46     1.97     2.27     0  03:21        1.97
  H08                  JUNCTION     1.50     2.01     2.26     0  03:21        2.01
  H09                  JUNCTION     1.55     2.06     2.26     0  03:21        2.06
  H10                  JUNCTION     1.60     2.11     2.26     0  03:21        2.11
  I00                  JUNCTION     1.01     1.44     2.04     0  03:19        1.44
  I01                  JUNCTION     1.06     1.49     2.04     0  03:22        1.49
  I02                  JUNCTION     1.11     1.54     2.04     0  03:22        1.54
  I03                  JUNCTION     1.15     1.58     2.03     0  03:22        1.58
  I04                  JUNCTION     1.20     1.63     2.03     0  03:22        1.63
  I05                  JUNCTION     1.25     1.68     2.03     0  03:23        1.68
  I06                  JUNCTION     1.30     1.73     2.03     0  03:18        1.73
  I07                  JUNCTION     1.34     1.78     2.03     0  03:18        1.78
  I08                  JUNCTION     1.39     1.83     2.03     0  03:18        1.83
  I09                  JUNCTION     1.44     1.88     2.03     0  03:21        1.88
  I10                  JUNCTION     1.48     1.92     2.02     0  03:21        1.92
  J00                  JUNCTION     0.85     1.19     1.74     0  03:07        1.19
  J01                  JUNCTION     0.90     1.24     1.74     0  03:07        1.24
  J02                  JUNCTION     0.95     1.29     1.74     0  03:22        1.29
  J03                  JUNCTION     1.00     1.34     1.74     0  03:21        1.34
  J04                  JUNCTION     1.04     1.39     1.74     0  03:21        1.39
  J05                  JUNCTION     1.09     1.44     1.74     0  03:18        1.44
  J06                  JUNCTION     1.14     1.48     1.73     0  03:20        1.48
  J07                  JUNCTION     1.18     1.53     1.73     0  03:20        1.53
  J08                  JUNCTION     1.23     1.58     1.73     0  03:17        1.58
  J09                  JUNCTION     1.28     1.63     1.73     0  03:21        1.63
  J10                  JUNCTION     1.32     1.68     1.73     0  03:21        1.68
  K00                  JUNCTION     0.65     0.88     1.38     0  03:03        0.88
  K01                  JUNCTION     0.70     0.93     1.38     0  03:03        0.93
  K02                  JUNCTION     0.75     0.98     1.38     0  03:03        0.98
  K03                  JUNCTION     0.79     1.03     1.38     0  03:02        1.03
  K04                  JUNCTION     0.84     1.08     1.38     0  03:05        1.08
  K05                  JUNCTION     0.89     1.13     1.38     0  03:05        1.13
  K06                  JUNCTION     0.93     1.18     1.38     0  03:05        1.18
  K07                  JUNCTION     0.98     1.22     1.37     0  03:05        1.22
  K08                  JUNCTION     1.03     1.27     1.37     0  03:05        1.27
  K09                  JUNCTION     1.07     1.32     1.37     0  03:06        1.32
  K10                  JUNCTION     1.12     1.37     1.37     0  03:21        1.37
  Outfall              OUTFALL      0.71     0.83     0.83     0  03:21        0.83
  
  
  *******************
  Node Inflow Summary
  *******************
  
  -------------------------------------------------------------------------------------------------
                                  Maximum  Maximum                  Lateral       Total        Flow
                                  Lateral    Total  Time of Max      Inflow      Inflow     Balance
                                   Inflow   Inflow   Occurrence      Volume      Volume       Error
  Node                 Type           CMS      CMS  days hr:min    10^6 ltr    10^6 ltr     Percent
  -------------------------------------------------------------------------------------------------
  A00                  JUNCTION     0.017    0.017     0  00:00       0.375       0.375      12.519
  A01                  JUNCTION     0.017    0.036     0  02:44       0.375       0.709      13.515
  A02                  JUNCTION     0.017    0.054     0  02:41       0.375           1       9.221
  A03                  JUNCTION     0.017    0.072     0  02:41       0.375        1.29       7.007
  A04                  JUNCTION     0.017    0.090     0  02:44       0.375        1.58       5.651
  A05                  JUNCTION     0.017    0.107     0  02:44       0.375        1.87       4.736
  A06                  JUNCTION     0.017    0.125     0  02:41       0.375        2.16       4.077
  A07                  JUNCTION     0.017    0.142     0  02:44       0.375        2.45       3.579
  A08                  JUNCTION     0.017    0.160     0  02:44       0.375        2.74       3.191
  A09                  JUNCTION     0.017    0.177     0  02:44       0.375        3.03       2.879
  A10                  JUNCTION     0.017    0.194     0  02:44       0.375        3.32       2.622
  B00                  JUNCTION     0.017    0.017     0  00:00       0.375       0.375      12.536
  B01                  JUNCTION     0.017    0.036     0  02:42       0.375       0.709      13.537
  B02                  JUNCTION     0.017    0.054     0  02:46       0.375       0.999       9.236
  B03                  JUNCTION     0.017    0.073     0  02:43       0.375        1.29       7.014
  B04                  JUNCTION     0.017    0.091     0  02:45       0.375        1.58       5.656
  B05                  JUNCTION     0.017    0.109     0  02:45       0.375        1.87       4.740
  B06                  JUNCTION     0.017    0.127     0  02:45       0.375        2.16       4.080
  B07                  JUNCTION     0.017    0.144     0  02:46       0.375        2.45       3.582
  B08                  JUNCTION     0.017    0.162     0  02:45       0.375        2.74       3.194
  B09                  JUNCTION     0.017    0.180     0  02:45       0.375        3.03       2.881
  B10                  JUNCTION     0.017    0.384     0  02:59       0.375        6.56       1.988
  C00                  JUNCTION     0.017    0.017     0  00:00       0.375       0.375      12.550
  C01                  JUNCTION     0.017    0.035     0  02:49       0.375       0.709      13.546
  C02                  JUNCTION     0.017    0.053     0  02:49       0.375       0.999       9.241
  C03                  JUNCTION     0.017    0.071     0  02:58       0.375        1.29       7.019
  C04                  JUNCTION     0.017    0.089     0  02:58       0.375        1.58       5.660
  C05                  JUNCTION     0.017    0.106     0  02:58       0.375        1.87       4.743
  C06                  JUNCTION     0.017    0.124     0  02:58       0.375        2.16       4.083
  C07                  JUNCTION     0.017    0.141     0  02:58       0.375        2.45       3.585
  C08                  JUNCTION     0.017    0.159     0  02:58       0.375        2.74       3.197
  C09                  JUNCTION     0.017    0.177     0  02:58       0.375        3.03       2.882
  C10                  JUNCTION     0.017    0.574     0  03:12       0.375        9.76       1.329
  D00                  JUNCTION     0.017    0.017     0  00:00       0.375       0.375      12.558
  D01                  JUNCTION     0.017    0.035     0  02:46       0.375       0.709      13.550
  D02                  JUNCTION     0.017    0.053     0  02:46       0.375       0.999       9.244
  D03                  JUNCTION     0.017    0.070     0  02:58       0.375        1.29       7.021
  D04                  JUNCTION     0.017    0.087     0  02:59       0.375        1.58       5.662
  D05                  JUNCTION     0.017    0.105     0  03:01       0.375        1.87       4.744
  D06                  JUNCTION     0.017    0.122     0  02:59       0.375        2.16       4.084
  D07                  JUNCTION     0.017    0.140     0  02:58       0.375        2.45       3.586
  D08                  JUNCTION     0.017    0.157     0  02:58       0.375        2.74       3.198
  D09                  JUNCTION     0.017    0.175     0  03:01       0.375        3.03       2.883
  D10                  JUNCTION     0.017    0.765     0  03:13       0.375          13       0.998
  E00                  JUNCTION     0.017    0.017     0  00:00       0.375       0.375      12.555
  E01                  JUNCTION     0.017    0.035     0  02:59       0.375       0.709      13.548
  E02                  JUNCTION     0.017    0.052     0  02:59       0.375       0.999       9.243
  E03                  JUNCTION     0.017    0.070     0  02:59       0.375        1.29       7.020
  E04                  JUNCTION     0.017    0.087     0  02:59       0.375        1.58       5.661
  E05                  JUNCTION     0.017    0.105     0  02:59       0.375        1.87       4.744
  E06                  JUNCTION     0.017    0.122     0  02:59       0.375        2.16       4.084
  E07                  JUNCTION     0.017    0.139     0  02:59       0.375        2.45       3.586
  E08                  JUNCTION     0.017    0.157     0  02:59       0.375        2.74       3.197
  E09                  JUNCTION     0.017    0.174     0  02:59       0.375        3.03       2.883
  E10                  JUNCTION     0.017    0.956     0  03:12       0.375        16.1       0.799
  F00                  JUNCTION     0.017    0.017     0  00:00       0.375       0.375      12.540
  F01                  JUNCTION     0.017    0.035     0  02:47       0.375       0.709      13.538
  F02                  JUNCTION     0.017    0.052     0  03:00       0.375       0.999       9.237
  F03                  JUNCTION     0.017    0.070     0  03:00       0.375        1.29       7.015
  F04                  JUNCTION     0.017    0.088     0  03:00       0.375        1.58       5.657
  F05                  JUNCTION     0.017    0.105     0  03:00       0.375        1.87       4.740
  F06                  JUNCTION     0.017    0.122     0  03:00       0.375        2.16       4.081
  F07                  JUNCTION     0.017    0.140     0  03:00       0.375        2.45       3.583
  F08                  JUNCTION     0.017    0.157     0  03:00       0.375        2.74       3.195
  F09                  JUNCTION     0.017    0.175     0  03:00       0.375        3.03       2.881
  F10                  JUNCTION     0.017    1.147     0  03:11       0.375        19.3       0.666
  G00                  JUNCTION     0.017    0.017     0  00:00       0.375       0.375      12.508
  G01                  JUNCTION     0.017    0.035     0  02:51       0.375       0.709      13.519
  G02                  JUNCTION     0.017    0.053     0  02:48       0.375           1       9.224
  G03                  JUNCTION     0.017    0.071     0  02:47       0.375        1.29       7.005
  G04                  JUNCTION     0.017    0.088     0  02:48       0.375        1.58       5.649
  G05                  JUNCTION     0.017    0.105     0  02:48       0.375        1.87       4.734
  G06                  JUNCTION     0.017    0.123     0  02:51       0.375        2.16       4.075
  G07                  JUNCTION     0.017    0.140     0  02:56       0.375        2.45       3.578
  G08                  JUNCTION     0.017    0.157     0  02:56       0.375        2.74       3.190
  G09                  JUNCTION     0.017    0.175     0  02:56       0.375        3.03       2.877
  G10                  JUNCTION     0.017    1.338     0  03:11       0.375        22.5       0.571
  H00                  JUNCTION     0.017    0.017     0  00:00       0.375       0.375      12.458
  H01                  JUNCTION     0.017    0.035     0  02:45       0.375       0.709      13.484
  H02                  JUNCTION     0.017    0.053     0  02:55       0.375           1       9.202
  H03                  JUNCTION     0.017    0.071     0  02:55       0.375        1.29       6.989
  H04                  JUNCTION     0.017    0.088     0  02:55       0.375        1.58       5.636
  H05                  JUNCTION     0.017    0.105     0  02:55       0.375        1.87       4.723
  H06                  JUNCTION     0.017    0.123     0  02:55       0.375        2.16       4.065
  H07                  JUNCTION     0.017    0.140     0  02:55       0.375        2.45       3.570
  H08                  JUNCTION     0.017    0.158     0  02:55       0.375        2.74       3.183
  H09                  JUNCTION     0.017    0.175     0  02:55       0.375        3.04       2.870
  H10                  JUNCTION     0.017    1.529     0  03:11       0.375        25.7       0.499
  I00                  JUNCTION     0.017    0.017     0  00:00       0.375       0.375      12.355
  I01                  JUNCTION     0.017    0.035     0  02:54       0.375       0.709      13.384
  I02                  JUNCTION     0.017    0.052     0  03:01       0.375           1       9.144
  I03                  JUNCTION     0.017    0.070     0  03:01       0.375        1.29       6.953
  I04                  JUNCTION     0.017    0.087     0  03:00       0.375        1.58       5.611
  I05                  JUNCTION     0.017    0.104     0  03:01       0.375        1.87       4.704
  I06                  JUNCTION     0.017    0.122     0  03:01       0.375        2.17       4.051
  I07                  JUNCTION     0.017    0.139     0  03:00       0.375        2.46       3.557
  I08                  JUNCTION     0.017    0.157     0  03:00       0.375        2.75       3.172
  I09                  JUNCTION     0.017    0.174     0  03:00       0.375        3.04       2.860
  I10                  JUNCTION     0.017    1.720     0  03:12       0.375        28.9       0.443
  J00                  JUNCTION     0.017    0.017     0  00:00       0.375       0.375      12.028
  J01                  JUNCTION     0.017    0.035     0  02:54       0.375        0.71      13.056
  J02                  JUNCTION     0.017    0.053     0  02:54       0.375           1       8.950
  J03                  JUNCTION     0.017    0.071     0  02:54       0.375         1.3       6.827
  J04                  JUNCTION     0.017    0.088     0  02:54       0.375        1.59       5.525
  J05                  JUNCTION     0.017    0.105     0  02:54       0.375        1.88       4.643
  J06                  JUNCTION     0.017    0.122     0  02:54       0.375        2.17       4.006
  J07                  JUNCTION     0.017    0.139     0  03:09       0.375        2.46       3.524
  J08                  JUNCTION     0.017    0.157     0  03:09       0.375        2.76       3.146
  J09                  JUNCTION     0.017    0.174     0  03:09       0.375        3.05       2.840
  J10                  JUNCTION     0.017    1.911     0  03:11       0.375        32.1       0.398
  K00                  JUNCTION     0.017    0.023     0  02:43       0.375       0.376      10.721
  K01                  JUNCTION     0.017    0.040     0  02:43       0.375       0.717      11.831
  K02                  JUNCTION     0.017    0.061     0  02:52       0.375        1.02       8.257
  K03                  JUNCTION     0.017    0.080     0  02:53       0.375        1.32       6.361
  K04                  JUNCTION     0.017    0.097     0  02:52       0.375        1.62       5.199
  K05                  JUNCTION     0.017    0.114     0  02:53       0.375        1.91       4.415
  K06                  JUNCTION     0.017    0.130     0  02:53       0.375         2.2       3.841
  K07                  JUNCTION     0.017    0.148     0  02:51       0.375        2.49       3.398
  K08                  JUNCTION     0.017    0.166     0  02:51       0.375        2.78       3.049
  K09                  JUNCTION     0.017    0.183     0  02:52       0.375        3.08       2.764
  K10                  JUNCTION     0.017    2.102     0  03:20       0.375        35.4       0.361
  Outfall              OUTFALL      0.000    2.102     0  03:21           0        35.3       0.000
  
  
  **********************
  Node Surcharge Summary
  **********************
  
  Surcharging occurs when water rises above the top of the highest conduit.
  ---------------------------------------------------------------------
                                               Max. Height   Min. Depth
                                   Hours       Above Crown    Below Rim
  Node                 Type      Surcharged         Meters       Meters
  ---------------------------------------------------------------------
  A00                  JUNCTION        3.54          0.782        8.218
  A01                  JUNCTION        3.57          0.831        8.169
  A02                  JUNCTION        3.59          0.881        8.119
  A03                  JUNCTION        3.62          0.931        8.069
  A04                  JUNCTION        3.66          0.980        8.020
  A05                  JUNCTION        3.71          1.029        7.971
  A06                  JUNCTION        3.77          1.078        7.922
  A07                  JUNCTION        3.84          1.126        7.874
  A08                  JUNCTION        3.92          1.174        7.826
  A09                  JUNCTION        4.01          1.221        7.779
  A10                  JUNCTION        4.11          1.268        7.732
  B00                  JUNCTION        3.56          0.831        8.169
  B01                  JUNCTION        3.59          0.881        8.119
  B02                  JUNCTION        3.62          0.931        8.069
  B03                  JUNCTION        3.66          0.980        8.020
  B04                  JUNCTION        3.71          1.029        7.971
  B05                  JUNCTION        3.77          1.078        7.922
  B06                  JUNCTION        3.84          1.126        7.874
  B07                  JUNCTION        3.92          1.174        7.826
  B08                  JUNCTION        4.01          1.221        7.779
  B09                  JUNCTION        4.11          1.268        7.732
  B10                  JUNCTION        4.21          1.314        7.686
  C00                  JUNCTION        3.58          0.865        8.135
  C01                  JUNCTION        3.62          0.915        8.085
  C02                  JUNCTION        3.66          0.964        8.036
  C03                  JUNCTION        3.71          1.014        7.986
  C04                  JUNCTION        3.77          1.063        7.937
  C05                  JUNCTION        3.84          1.112        7.888
  C06                  JUNCTION        3.92          1.160        7.840
  C07                  JUNCTION        4.00          1.209        7.791
  C08                  JUNCTION        4.10          1.256        7.744
  C09                  JUNCTION        4.21          1.303        7.697
  C10                  JUNCTION        4.32          1.350        7.650
  D00                  JUNCTION        3.61          0.881        8.119
  D01                  JUNCTION        3.65          0.931        8.069
  D02                  JUNCTION        3.70          0.981        8.019
  D03                  JUNCTION        3.76          1.030        7.970
  D04                  JUNCTION        3.83          1.079        7.921
  D05                  JUNCTION        3.90          1.128        7.872
  D06                  JUNCTION        3.99          1.177        7.823
  D07                  JUNCTION        4.09          1.225        7.775
  D08                  JUNCTION        4.19          1.273        7.727
  D09                  JUNCTION        4.31          1.320        7.680
  D10                  JUNCTION        4.43          1.367        7.633
  E00                  JUNCTION        3.62          0.871        8.129
  E01                  JUNCTION        3.67          0.921        8.079
  E02                  JUNCTION        3.73          0.971        8.029
  E03                  JUNCTION        3.80          1.020        7.980
  E04                  JUNCTION        3.87          1.070        7.930
  E05                  JUNCTION        3.96          1.119        7.881
  E06                  JUNCTION        4.06          1.168        7.832
  E07                  JUNCTION        4.16          1.216        7.784
  E08                  JUNCTION        4.27          1.264        7.736
  E09                  JUNCTION        4.40          1.312        7.688
  E10                  JUNCTION        4.52          1.359        7.641
  F00                  JUNCTION        3.63          0.831        8.169
  F01                  JUNCTION        3.68          0.881        8.119
  F02                  JUNCTION        3.75          0.931        8.069
  F03                  JUNCTION        3.82          0.980        8.020
  F04                  JUNCTION        3.90          1.030        7.970
  F05                  JUNCTION        4.00          1.079        7.921
  F06                  JUNCTION        4.11          1.128        7.872
  F07                  JUNCTION        4.22          1.176        7.824
  F08                  JUNCTION        4.34          1.224        7.776
  F09                  JUNCTION        4.48          1.271        7.729
  F10                  JUNCTION        4.60          1.318        7.682
  G00                  JUNCTION        3.61          0.749        8.251
  G01                  JUNCTION        3.67          0.799        8.201
  G02                  JUNCTION        3.73          0.849        8.151
  G03                  JUNCTION        3.81          0.898        8.102
  G04                  JUNCTION        3.91          0.948        8.052
  G05                  JUNCTION        4.01          0.997        8.003
  G06                  JUNCTION        4.12          1.046        7.954
  G07                  JUNCTION        4.25          1.094        7.906
  G08                  JUNCTION        4.38          1.142        7.858
  G09                  JUNCTION        4.52          1.190        7.810
  G10                  JUNCTION        4.66          1.237        7.763
  H00                  JUNCTION        3.55          0.621        8.379
  H01                  JUNCTION        3.61          0.670        8.330
  H02                  JUNCTION        3.68          0.720        8.280
  H03                  JUNCTION        3.76          0.770        8.230
  H04                  JUNCTION        3.86          0.819        8.181
  H05                  JUNCTION        3.97          0.868        8.132
  H06                  JUNCTION        4.10          0.917        8.083
  H07                  JUNCTION        4.23          0.966        8.034
  H08                  JUNCTION        4.38          1.014        7.986
  H09                  JUNCTION        4.53          1.061        7.939
  H10                  JUNCTION        4.68          1.108        7.892
  I00                  JUNCTION        3.45          0.435        8.565
  I01                  JUNCTION        3.50          0.485        8.515
  I02                  JUNCTION        3.56          0.535        8.465
  I03                  JUNCTION        3.63          0.585        8.415
  I04                  JUNCTION        3.73          0.634        8.366
  I05                  JUNCTION        3.85          0.684        8.316
  I06                  JUNCTION        3.99          0.733        8.267
  I07                  JUNCTION        4.14          0.781        8.219
  I08                  JUNCTION        4.30          0.829        8.171
  I09                  JUNCTION        4.47          0.877        8.123
  I10                  JUNCTION        4.64          0.924        8.076
  J00                  JUNCTION        3.31          0.187        8.813
  J01                  JUNCTION        3.35          0.237        8.763
  J02                  JUNCTION        3.39          0.287        8.713
  J03                  JUNCTION        3.44          0.336        8.664
  J04                  JUNCTION        3.50          0.386        8.614
  J05                  JUNCTION        3.60          0.435        8.565
  J06                  JUNCTION        3.73          0.484        8.516
  J07                  JUNCTION        3.90          0.533        8.467
  J08                  JUNCTION        4.09          0.581        8.419
  J09                  JUNCTION        4.29          0.628        8.372
  J10                  JUNCTION        4.49          0.675        8.325
  K03                  JUNCTION        3.20          0.028        8.972
  K04                  JUNCTION        3.24          0.077        8.923
  K05                  JUNCTION        3.28          0.126        8.874
  K06                  JUNCTION        3.34          0.176        8.824
  K07                  JUNCTION        3.42          0.224        8.776
  K08                  JUNCTION        3.55          0.272        8.728
  K09                  JUNCTION        3.77          0.319        8.681
  K10                  JUNCTION        4.03          0.366        8.634
  
  
  *********************
  Node Flooding Summary
  *********************
  
  No nodes were flooded.
  
  
  ***********************
  Outfall Loading Summary
  ***********************
  
  -----------------------------------------------------------
                         Flow       Avg       Max       Total
                         Freq      Flow      Flow      Volume
  Outfall Node           Pcnt       CMS       CMS    10^6 ltr
  -----------------------------------------------------------
  Outfall               99.90     1.634     2.102      35.265
  -----------------------------------------------------------
  System                99.90     1.634     2.102      35.265
  
  
  ********************
  Link Flow Summary
  ********************
  
  -----------------------------------------------------------------------------
                                 Maximum  Time of Max   Maximum    Max/    Max/
                                  |Flow|   Occurrence   |Veloc|    Full    Full
  Link                 Type          CMS  days hr:min     m/sec    Flow   Depth
  -----------------------------------------------------------------------------
  121                  CONDUIT     0.018     0  02:44      0.37    0.03    1.00
  122                  CONDUIT     0.037     0  02:41      0.41    0.05    1.00
  123                  CONDUIT     0.055     0  02:41      0.46    0.08    1.00
  124                  CONDUIT     0.072     0  02:44      0.50    0.10    1.00
  125                  CONDUIT     0.090     0  02:44      0.53    0.13    1.00
  126                  CONDUIT     0.107     0  02:41      0.56    0.15    1.00
  127                  CONDUIT     0.125     0  02:44      0.59    0.18    1.00
  128                  CONDUIT     0.142     0  02:44      0.60    0.20    1.00
  129                  CONDUIT     0.160     0  02:44      0.58    0.23    1.00
  130                  CONDUIT     0.177     0  02:44      0.51    0.25    1.00
  131                  CONDUIT     0.019     0  02:42      0.37    0.03    1.00
  132                  CONDUIT     0.037     0  02:46      0.41    0.05    1.00
  133                  CONDUIT     0.055     0  02:43      0.46    0.08    1.00
  134                  CONDUIT     0.074     0  02:45      0.50    0.11    1.00
  135                  CONDUIT     0.092     0  02:45      0.53    0.13    1.00
  136                  CONDUIT     0.109     0  02:45      0.56    0.16    1.00
  137                  CONDUIT     0.127     0  02:46      0.59    0.18    1.00
  138                  CONDUIT     0.144     0  02:45      0.58    0.21    1.00
  139                  CONDUIT     0.162     0  02:45      0.51    0.23    1.00
  140                  CONDUIT     0.180     0  02:45      0.40    0.26    1.00
  141                  CONDUIT     0.018     0  02:49      0.37    0.03    1.00
  142                  CONDUIT     0.036     0  02:49      0.41    0.05    1.00
  143                  CONDUIT     0.053     0  02:58      0.46    0.08    1.00
  144                  CONDUIT     0.071     0  02:58      0.50    0.10    1.00
  145                  CONDUIT     0.089     0  02:58      0.53    0.13    1.00
  146                  CONDUIT     0.106     0  02:58      0.56    0.15    1.00
  147                  CONDUIT     0.124     0  02:58      0.58    0.18    1.00
  148                  CONDUIT     0.142     0  02:58      0.56    0.20    1.00
  149                  CONDUIT     0.159     0  02:58      0.49    0.23    1.00
  150                  CONDUIT     0.177     0  02:58      0.41    0.25    1.00
  151                  CONDUIT     0.018     0  02:46      0.37    0.03    1.00
  152                  CONDUIT     0.035     0  02:46      0.41    0.05    1.00
  153                  CONDUIT     0.053     0  02:58      0.46    0.08    1.00
  154                  CONDUIT     0.070     0  02:59      0.50    0.10    1.00
  155                  CONDUIT     0.087     0  03:01      0.53    0.13    1.00
  156                  CONDUIT     0.105     0  02:59      0.56    0.15    1.00
  157                  CONDUIT     0.122     0  02:58      0.58    0.18    1.00
  158                  CONDUIT     0.140     0  02:58      0.56    0.20    1.00
  159                  CONDUIT     0.157     0  03:01      0.49    0.23    1.00
  160                  CONDUIT     0.175     0  03:01      0.41    0.25    1.00
  161                  CONDUIT     0.018     0  02:59      0.37    0.03    1.00
  162                  CONDUIT     0.035     0  02:59      0.41    0.05    1.00
  163                  CONDUIT     0.052     0  02:59      0.46    0.08    1.00
  164                  CONDUIT     0.070     0  02:59      0.50    0.10    1.00
  165                  CONDUIT     0.087     0  02:59      0.53    0.13    1.00
  166                  CONDUIT     0.105     0  02:59      0.56    0.15    1.00
  167                  CONDUIT     0.122     0  02:59      0.58    0.17    1.00
  168                  CONDUIT     0.139     0  02:59      0.56    0.20    1.00
  169                  CONDUIT     0.157     0  02:59      0.49    0.22    1.00
  170                  CONDUIT     0.174     0  02:59      0.41    0.25    1.00
  171                  CONDUIT     0.018     0  02:47      0.37    0.03    1.00
  172                  CONDUIT     0.035     0  03:00      0.41    0.05    1.00
  173                  CONDUIT     0.053     0  03:00      0.46    0.08    1.00
  174                  CONDUIT     0.070     0  03:00      0.50    0.10    1.00
  175                  CONDUIT     0.088     0  03:00      0.53    0.13    1.00
  176                  CONDUIT     0.105     0  03:00      0.56    0.15    1.00
  177                  CONDUIT     0.123     0  03:00      0.58    0.18    1.00
  178                  CONDUIT     0.140     0  03:00      0.56    0.20    1.00
  179                  CONDUIT     0.157     0  03:00      0.49    0.23    1.00
  180                  CONDUIT     0.175     0  02:59      0.41    0.25    1.00
  181                  CONDUIT     0.018     0  02:51      0.37    0.03    1.00
  182                  CONDUIT     0.036     0  02:48      0.41    0.05    1.00
  183                  CONDUIT     0.053     0  02:47      0.46    0.08    1.00
  184                  CONDUIT     0.071     0  02:48      0.50    0.10    1.00
  185                  CONDUIT     0.088     0  02:48      0.53    0.13    1.00
  186                  CONDUIT     0.105     0  02:51      0.56    0.15    1.00
  187                  CONDUIT     0.123     0  02:56      0.58    0.18    1.00
  188                  CONDUIT     0.140     0  02:56      0.56    0.20    1.00
  189                  CONDUIT     0.157     0  02:56      0.49    0.23    1.00
  190                  CONDUIT     0.175     0  02:56      0.41    0.25    1.00
  191                  CONDUIT     0.018     0  02:45      0.37    0.03    1.00
  192                  CONDUIT     0.036     0  02:55      0.41    0.05    1.00
  193                  CONDUIT     0.053     0  02:55      0.46    0.08    1.00
  194                  CONDUIT     0.071     0  02:55      0.50    0.10    1.00
  195                  CONDUIT     0.088     0  02:55      0.53    0.13    1.00
  196                  CONDUIT     0.106     0  02:55      0.56    0.15    1.00
  197                  CONDUIT     0.123     0  02:55      0.58    0.18    1.00
  198                  CONDUIT     0.140     0  02:55      0.56    0.20    1.00
  199                  CONDUIT     0.158     0  02:55      0.49    0.23    1.00
  200                  CONDUIT     0.175     0  02:55      0.41    0.25    1.00
  201                  CONDUIT     0.018     0  02:54      0.37    0.03    1.00
  202                  CONDUIT     0.035     0  03:01      0.41    0.05    1.00
  203                  CONDUIT     0.053     0  03:01      0.46    0.08    1.00
  204                  CONDUIT     0.070     0  03:00      0.50    0.10    1.00
  205                  CONDUIT     0.087     0  03:01      0.53    0.12    1.00
  206                  CONDUIT     0.104     0  03:01      0.56    0.15    1.00
  207                  CONDUIT     0.122     0  03:00      0.58    0.17    1.00
  208                  CONDUIT     0.139     0  03:00      0.56    0.20    1.00
  209                  CONDUIT     0.157     0  03:00      0.49    0.22    1.00
  210                  CONDUIT     0.174     0  03:00      0.41    0.25    1.00
  211                  CONDUIT     0.018     0  02:54      0.37    0.03    1.00
  212                  CONDUIT     0.036     0  02:54      0.41    0.05    1.00
  213                  CONDUIT     0.053     0  02:54      0.46    0.08    1.00
  214                  CONDUIT     0.070     0  02:54      0.50    0.10    1.00
  215                  CONDUIT     0.088     0  02:54      0.53    0.13    1.00
  216                  CONDUIT     0.105     0  02:54      0.56    0.15    1.00
  217                  CONDUIT     0.122     0  03:09      0.58    0.17    1.00
  218                  CONDUIT     0.139     0  03:09      0.55    0.20    1.00
  219                  CONDUIT     0.157     0  03:09      0.49    0.22    1.00
  220                  CONDUIT     0.174     0  03:09      0.41    0.25    1.00
  221                  CONDUIT     0.022     0  02:50      0.37    0.03    0.90
  222                  CONDUIT     0.043     0  02:52      0.41    0.06    0.95
  223                  CONDUIT     0.062     0  02:53      0.46    0.09    1.00
  224                  CONDUIT     0.080     0  02:52      0.50    0.11    1.00
  225                  CONDUIT     0.096     0  02:53      0.53    0.14    1.00
  226                  CONDUIT     0.113     0  02:53      0.56    0.16    1.00
  227                  CONDUIT     0.131     0  02:51      0.58    0.19    1.00
  228                  CONDUIT     0.148     0  02:51      0.54    0.21    1.00
  229                  CONDUIT     0.165     0  02:52      0.47    0.24    1.00
  230                  CONDUIT     0.182     0  02:52      0.37    0.26    1.00
  231                  CONDUIT     0.194     0  02:44      0.40    0.28    1.00
  232                  CONDUIT     0.384     0  02:59      0.55    0.55    1.00
  233                  CONDUIT     0.574     0  03:12      0.73    0.82    1.00
  234                  CONDUIT     0.765     0  03:12      0.97    1.10    1.00
  235                  CONDUIT     0.956     0  03:13      1.22    1.37    1.00
  236                  CONDUIT     1.147     0  03:11      1.46    1.65    1.00
  237                  CONDUIT     1.338     0  03:11      1.70    1.92    1.00
  238                  CONDUIT     1.529     0  03:14      1.95    2.19    1.00
  239                  CONDUIT     1.720     0  03:12      2.19    2.47    1.00
  240                  CONDUIT     1.911     0  03:11      2.43    2.74    1.00
  241                  CONDUIT     2.102     0  03:21      2.68   38.63    1.00
  
  
  ***************************
  Flow Classification Summary
  ***************************
  
  -------------------------------------------------------------------------------------
                      Adjusted    ---------- Fraction of Time in Flow Class ---------- 
                       /Actual         Up    Down  Sub   Sup   Up    Down  Norm  Inlet 
  Conduit               Length    Dry  Dry   Dry   Crit  Crit  Crit  Crit  Ltd   Ctrl  
  -------------------------------------------------------------------------------------
  121                     1.00   0.00  0.00  0.00  1.00  0.00  0.00  0.00  0.01  0.00
  122                     1.00   0.00  0.00  0.00  1.00  0.00  0.00  0.00  0.00  0.00
  123                     1.00   0.00  0.00  0.00  1.00  0.00  0.00  0.00  0.00  0.00
  124                     1.00   0.00  0.00  0.00  1.00  0.00  0.00  0.00  0.00  0.00
  125                     1.00   0.00  0.00  0.00  1.00  0.00  0.00  0.00  0.00  0.00
  126                     1.00   0.00  0.00  0.00  1.00  0.00  0.00  0.00  0.00  0.00
  127                     1.00   0.00  0.00  0.00  1.00  0.00  0.00  0.00  0.00  0.00
  128                     1.00   0.00  0.00  0.00  1.00  0.00  0.00  0.00  0.00  0.00
  129                     1.00   0.00  0.00  0.00  1.00  0.00  0.00  0.00  0.00  0.00
  130                     1.00   0.00  0.00  0.00  1.00  0.00  0.00  0.00  0.00  0.00
  131                     1.00   0.00  0.00  0.00  1.00  0.00  0.00  0.00  0.01  0.00
  132                     1.00   0.00  0.00  0.00  1.00  0.00  0.00  0.00  0.00  0.00
  133                     1.00   0.00  0.00  0.00  1.00  0.00  0.00  0.00  0.00  0.00
  134                     1.00   0.00  0.00  0.00  1.00  0.00  0.00  0.00  0.00  0.00
  135                     1.00   0.00  0.00  0.00  1.00  0.00  0.00  0.00  0.00  0.00
  136                     1.00   0.00  0.00  0.00  1.00  0.00  0.00  0.00  0.00  0.00
  137                     1.00   0.00  0.00  0.00  1.00  0.00  0.00  0.00  0.00  0.00
  138                     1.00   0.00  0.00  0.00  1.00  0.00  0.00  0.00  0.00  0.00
  139                     1.00   0.00  0.00  0.00  1.00  0.00  0.00  0.00  0.00  0.00
  140                     1.00   0.00  0.00  0.00  1.00  0.00  0.00  0.00  0.00  0.00
  141                     1.00   0.00  0.00  0.00  1.00  0.00  0.00  0.00  0.01  0.00
  142                     1.00   0.00  0.00  0.00  1.00  0.00  0.00  0.00  0.00  0.00
  143                     1.00   0.00  0.00  0.00  1.00  0.00  0.00  0.00  0.00  0.00
  144                     1.00   0.00  0.00  0.00  1.00  0.00  0.00  0.00  0.00  0.00
  145                     1.00   0.00  0.00  0.00  1.00  0.00  0.00  0.00  0.00  0.00
  146                     1.00   0.00  0.00  0.00  1.00  0.00  0.00  0.00  0.00  0.00
  147                     1.00   0.00  0.00  0.00  1.00  0.00  0.00  0.00  0.00  0.00
  148                     1.00   0.00  0.00  0.00  1.00  0.00  0.00  0.00  0.00  0.00
  149                     1.00   0.00  0.00  0.00  1.00  0.00  0.00  0.00  0.00  0.00
  150                     1.00   0.00  0.00  0.00  1.00  0.00  0.00  0.00  0.00  0.00
  151                     1.00   0.00  0.00  0.00  1.00  0.00  0.00  0.00  0.01  0.00
  152                     1.00   0.00  0.00  0.00  1.00  0.00  0.00  0.00  0.00  0.00
  153                     1.00   0.00  0.00  0.00  1.00  0.00  0.00  0.00  0.00  0.00
  154                     1.00   0.00  0.00  0.00  1.00  0.00  0.00  0.00  0.00  0.00
  155                     1.00   0.00  0.00  0.00  1.00  0.00  0.00  0.00  0.00  0.00
  156                     1.00   0.00  0.00  0.00  1.00  0.00  0.00  0.00  0.00  0.00
  157                     1.00   0.00  0.00  0.00  1.00  0.00  0.00  0.00  0.00  0.00
  158                     1.00   0.00  0.00  0.00  1.00  0.00  0.00  0.00  0.00  0.00
  159                     1.00   0.00  0.00  0.00  1.00  0.00  0.00  0.00  0.00  0.00
  160                     1.00   0.00  0.00  0.00  1.00  0.00  0.00  0.00  0.00  0.00
  161                     1.00   0.00  0.00  0.00  1.00  0.00  0.00  0.00  0.01  0.00
  162                     1.00   0.00  0.00  0.00  1.00  0.00  0.00  0.00  0.00  0.00
  163                     1.00   0.00  0.00  0.00  1.00  0.00  0.00  0.00  0.00  0.00
  164                     1.00   0.00  0.00  0.00  1.00  0.00  0.00  0.00  0.00  0.00
  165                     1.00   0.00  0.00  0.00  1.00  0.00  0.00  0.00  0.00  0.00
  166                     1.00   0.00  0.00  0.00  1.00  0.00  0.00  0.00  0.00  0.00
  167                     1.00   0.00  0.00  0.00  1.00  0.00  0.00  0.00  0.00  0.00
  168                     1.00   0.00  0.00  0.00  1.00  0.00  0.00  0.00  0.00  0.00
  169                     1.00   0.00  0.00  0.00  1.00  0.00  0.00  0.00  0.00  0.00
  170                     1.00   0.00  0.00  0.00  1.00  0.00  0.00  0.00  0.00  0.00
  171                     1.00   0.00  0.00  0.00  1.00  0.00  0.00  0.00  0.01  0.00
  172                     1.00   0.00  0.00  0.00  1.00  0.00  0.00  0.00  0.00  0.00
  173                     1.00   0.00  0.00  0.00  1.00  0.00  0.00  0.00  0.00  0.00
  174                     1.00   0.00  0.00  0.00  1.00  0.00  0.00  0.00  0.00  0.00
  175                     1.00   0.00  0.00  0.00  1.00  0.00  0.00  0.00  0.00  0.00
  176                     1.00   0.00  0.00  0.00  1.00  0.00  0.00  0.00  0.00  0.00
  177                     1.00   0.00  0.00  0.00  1.00  0.00  0.00  0.00  0.00  0.00
  178                     1.00   0.00  0.00  0.00  1.00  0.00  0.00  0.00  0.00  0.00
  179                     1.00   0.00  0.00  0.00  1.00  0.00  0.00  0.00  0.00  0.00
  180                     1.00   0.00  0.00  0.00  1.00  0.00  0.00  0.00  0.00  0.00
  181                     1.00   0.00  0.00  0.00  1.00  0.00  0.00  0.00  0.01  0.00
  182                     1.00   0.00  0.00  0.00  1.00  0.00  0.00  0.00  0.00  0.00
  183                     1.00   0.00  0.00  0.00  1.00  0.00  0.00  0.00  0.00  0.00
  184                     1.00   0.00  0.00  0.00  1.00  0.00  0.00  0.00  0.00  0.00
  185                     1.00   0.00  0.00  0.00  1.00  0.00  0.00  0.00  0.00  0.00
  186                     1.00   0.00  0.00  0.00  1.00  0.00  0.00  0.00  0.00  0.00
  187                     1.00   0.00  0.00  0.00  1.00  0.00  0.00  0.00  0.00  0.00
  188                     1.00   0.00  0.00  0.00  1.00  0.00  0.00  0.00  0.00  0.00
  189                     1.00   0.00  0.00  0.00  1.00  0.00  0.00  0.00  0.00  0.00
  190                     1.00   0.00  0.00  0.00  1.00  0.00  0.00  0.00  0.00  0.00
  191                     1.00   0.00  0.00  0.00  1.00  0.00  0.00  0.00  0.01  0.00
  192                     1.00   0.00  0.00  0.00  1.00  0.00  0.00  0.00  0.00  0.00
  193                     1.00   0.00  0.00  0.00  1.00  0.00  0.00  0.00  0.00  0.00
  194                     1.00   0.00  0.00  0.00  1.00  0.00  0.00  0.00  0.00  0.00
  195                     1.00   0.00  0.00  0.00  1.00  0.00  0.00  0.00  0.00  0.00
  196                     1.00   0.00  0.00  0.00  1.00  0.00  0.00  0.00  0.00  0.00
  197                     1.00   0.00  0.00  0.00  1.00  0.00  0.00  0.00  0.00  0.00
  198                     1.00   0.00  0.00  0.00  1.00  0.00  0.00  0.00  0.00  0.00
  199                     1.00   0.00  0.00  0.00  1.00  0.00  0.00  0.00  0.00  0.00
  200                     1.00   0.00  0.00  0.00  1.00  0.00  0.00  0.00  0.00  0.00
  201                     1.00   0.00  0.00  0.00  1.00  0.00  0.00  0.00  0.01  0.00
  202                     1.00   0.00  0.00  0.00  1.00  0.00  0.00  0.00  0.00  0.00
  203                     1.00   0.00  0.00  0.00  1.00  0.00  0.00  0.00  0.00  0.00
  204                     1.00   0.00  0.00  0.00  1.00  0.00  0.00  0.00  0.00  0.00
  205                     1.00   0.00  0.00  0.00  1.00  0.00  0.00  0.00  0.00  0.00
  206                     1.00   0.00  0.00  0.00  1.00  0.00  0.00  0.00  0.00  0.00
  207                     1.00   0.00  0.00  0.00  1.00  0.00  0.00  0.00  0.00  0.00
  208                     1.00   0.00  0.00  0.00  1.00  0.00  0.00  0.00  0.00  0.00
  209                     1.00   0.00  0.00  0.00  1.00  0.00  0.00  0.00  0.00  0.00
  210                     1.00   0.00  0.00  0.00  1.00  0.00  0.00  0.00  0.00  0.00
  211                     1.00   0.00  0.00  0.00  1.00  0.00  0.00  0.00  0.01  0.00
  212                     1.00   0.00  0.00  0.00  1.00  0.00  0.00  0.00  0.00  0.00
  213                     1.00   0.00  0.00  0.00  1.00  0.00  0.00  0.00  0.00  0.00
  214                     1.00   0.00  0.00  0.00  1.00  0.00  0.00  0.00  0.00  0.00
  215                     1.00   0.00  0.00  0.00  1.00  0.00  0.00  0.00  0.00  0.00
  216                     1.00   0.00  0.00  0.00  1.00  0.00  0.00  0.00  0.00  0.00
  217                     1.00   0.00  0.00  0.00  1.00  0.00  0.00  0.00  0.00  0.00
  218                     1.00   0.00  0.00  0.00  1.00  0.00  0.00  0.00  0.00  0.00
  219                     1.00   0.00  0.00  0.00  1.00  0.00  0.00  0.00  0.00  0.00
  220                     1.00   0.00  0.00  0.00  1.00  0.00  0.00  0.00  0.00  0.00
  221                     1.00   0.00  0.00  0.00  1.00  0.00  0.00  0.00  0.01  0.00
  222                     1.00   0.00  0.00  0.00  1.00  0.00  0.00  0.00  0.00  0.00
  223                     1.00   0.00  0.00  0.00  1.00  0.00  0.00  0.00  0.00  0.00
  224                     1.00   0.00  0.00  0.00  1.00  0.00  0.00  0.00  0.00  0.00
  225                     1.00   0.00  0.00  0.00  1.00  0.00  0.00  0.00  0.00  0.00
  226                     1.00   0.00  0.00  0.00  1.00  0.00  0.00  0.00  0.00  0.00
  227                     1.00   0.00  0.00  0.00  1.00  0.00  0.00  0.00  0.00  0.00
  228                     1.00   0.00  0.00  0.00  1.00  0.00  0.00  0.00  0.00  0.00
  229                     1.00   0.00  0.00  0.00  1.00  0.00  0.00  0.00  0.00  0.00
  230                     1.00   0.00  0.00  0.00  1.00  0.00  0.00  0.00  0.00  0.00
  231                     1.00   0.00  0.00  0.00  1.00  0.00  0.00  0.00  0.00  0.00
  232                     1.00   0.00  0.00  0.00  1.00  0.00  0.00  0.00  0.00  0.00
  233                     1.00   0.00  0.00  0.00  1.00  0.00  0.00  0.00  0.00  0.00
  234                     1.00   0.00  0.00  0.00  1.00  0.00  0.00  0.00  0.00  0.00
  235                     1.00   0.00  0.00  0.00  1.00  0.00  0.00  0.00  0.00  0.00
  236                     1.00   0.00  0.00  0.00  1.00  0.00  0.00  0.00  0.00  0.00
  237                     1.00   0.00  0.00  0.00  1.00  0.00  0.00  0.00  0.00  0.00
  238                     1.00   0.00  0.00  0.00  1.00  0.00  0.00  0.00  0.00  0.00
  239                     1.00   0.00  0.00  0.00  1.00  0.00  0.00  0.00  0.00  0.00
  240                     1.00   0.00  0.00  0.00  1.00  0.00  0.00  0.00  0.00  0.00
  241                     1.00   0.00  0.00  0.00  1.00  0.00  0.00  0.00  0.00  0.00
  
  
  *************************
  Conduit Surcharge Summary
  *************************
  
  ----------------------------------------------------------------------------
                                                           Hours        Hours 
                         --------- Hours Full --------   Above Full   Capacity
  Conduit                Both Ends  Upstream  Dnstream   Normal Flow   Limited
  ----------------------------------------------------------------------------
  121                         3.54      3.54      3.57      0.01         0.01
  122                         3.57      3.57      3.59      0.01         0.01
  123                         3.59      3.59      3.62      0.01         0.01
  124                         3.62      3.62      3.66      0.01         0.01
  125                         3.66      3.66      3.71      0.01         0.01
  126                         3.71      3.71      3.77      0.01         0.01
  127                         3.77      3.77      3.84      0.01         0.01
  128                         3.84      3.84      3.92      0.01         0.01
  129                         3.92      3.92      4.01      0.01         0.01
  130                         4.01      4.01      4.11      0.01         0.01
  131                         3.56      3.56      3.59      0.01         0.01
  132                         3.59      3.59      3.62      0.01         0.01
  133                         3.62      3.62      3.66      0.01         0.01
  134                         3.66      3.66      3.71      0.01         0.01
  135                         3.71      3.71      3.77      0.01         0.01
  136                         3.77      3.77      3.84      0.01         0.01
  137                         3.84      3.84      3.92      0.01         0.01
  138                         3.92      3.92      4.01      0.01         0.01
  139                         4.01      4.01      4.11      0.01         0.01
  140                         4.11      4.11      4.21      0.01         0.01
  141                         3.58      3.58      3.62      0.01         0.01
  142                         3.62      3.62      3.66      0.01         0.01
  143                         3.66      3.66      3.71      0.01         0.01
  144                         3.71      3.71      3.77      0.01         0.01
  145                         3.77      3.77      3.84      0.01         0.01
  146                         3.84      3.84      3.92      0.01         0.01
  147                         3.92      3.92      4.00      0.01         0.01
  148                         4.00      4.00      4.10      0.01         0.01
  149                         4.10      4.10      4.21      0.01         0.01
  150                         4.21      4.21      4.32      0.01         0.01
  151                         3.61      3.61      3.65      0.01         0.01
  152                         3.65      3.65      3.70      0.01         0.01
  153                         3.70      3.70      3.76      0.01         0.01
  154                         3.76      3.76      3.83      0.01         0.01
  155                         3.83      3.83      3.90      0.01         0.01
  156                         3.90      3.90      3.99      0.01         0.01
  157                         3.99      3.99      4.09      0.01         0.01
  158                         4.09      4.09      4.19      0.01         0.01
  159                         4.19      4.19      4.31      0.01         0.01
  160                         4.31      4.31      4.43      0.01         0.01
  161                         3.62      3.62      3.67      0.01         0.01
  162                         3.67      3.67      3.73      0.01         0.01
  163                         3.73      3.73      3.80      0.01         0.01
  164                         3.80      3.80      3.87      0.01         0.01
  165                         3.87      3.87      3.96      0.01         0.01
  166                         3.96      3.96      4.06      0.01         0.01
  167                         4.06      4.06      4.16      0.01         0.01
  168                         4.16      4.16      4.27      0.01         0.01
  169                         4.27      4.27      4.40      0.01         0.01
  170                         4.40      4.40      4.52      0.01         0.01
  171                         3.63      3.63      3.68      0.01         0.01
  172                         3.68      3.68      3.75      0.01         0.01
  173                         3.75      3.75      3.82      0.01         0.01
  174                         3.82      3.82      3.90      0.01         0.01
  175                         3.90      3.90      4.00      0.01         0.01
  176                         4.00      4.00      4.11      0.01         0.01
  177                         4.11      4.11      4.22      0.01         0.01
  178                         4.22      4.22      4.34      0.01         0.01
  179                         4.34      4.34      4.48      0.01         0.01
  180                         4.48      4.48      4.60      0.01         0.01
  181                         3.61      3.61      3.67      0.01         0.01
  182                         3.67      3.67      3.73      0.01         0.01
  183                         3.73      3.73      3.81      0.01         0.01
  184                         3.81      3.81      3.91      0.01         0.01
  185                         3.91      3.91      4.01      0.01         0.01
  186                         4.01      4.01      4.12      0.01         0.01
  187                         4.12      4.12      4.25      0.01         0.01
  188                         4.25      4.25      4.38      0.01         0.01
  189                         4.38      4.38      4.52      0.01         0.01
  190                         4.52      4.52      4.66      0.01         0.01
  191                         3.55      3.55      3.61      0.01         0.01
  192                         3.61      3.61      3.68      0.01         0.01
  193                         3.68      3.68      3.76      0.01         0.01
  194                         3.76      3.76      3.86      0.01         0.01
  195                         3.86      3.86      3.97      0.01         0.01
  196                         3.97      3.97      4.10      0.01         0.01
  197                         4.10      4.10      4.23      0.01         0.01
  198                         4.23      4.23      4.38      0.01         0.01
  199                         4.38      4.38      4.53      0.01         0.01
  200                         4.53      4.53      4.68      0.01         0.01
  201                         3.45      3.45      3.50      0.01         0.01
  202                         3.50      3.50      3.56      0.01         0.01
  203                         3.56      3.56      3.63      0.01         0.01
  204                         3.63      3.63      3.73      0.01         0.01
  205                         3.73      3.73      3.85      0.01         0.01
  206                         3.85      3.85      3.99      0.01         0.01
  207                         3.99      3.99      4.14      0.01         0.01
  208                         4.14      4.14      4.30      0.01         0.01
  209                         4.30      4.30      4.47      0.01         0.01
  210                         4.47      4.47      4.64      0.01         0.01
  211                         3.31      3.31      3.35      0.01         0.01
  212                         3.35      3.35      3.39      0.01         0.01
  213                         3.39      3.39      3.44      0.01         0.01
  214                         3.44      3.44      3.50      0.01         0.01
  215                         3.50      3.50      3.60      0.01         0.01
  216                         3.60      3.60      3.73      0.01         0.01
  217                         3.73      3.73      3.90      0.01         0.01
  218                         3.90      3.90      4.09      0.01         0.01
  219                         4.09      4.09      4.29      0.01         0.01
  220                         4.29      4.29      4.49      0.01         0.01
  223                         0.01      0.01      3.20      0.01         0.01
  224                         3.20      3.20      3.24      0.01         0.01
  225                         3.24      3.24      3.28      0.01         0.01
  226                         3.28      3.28      3.34      0.01         0.01
  227                         3.34      3.34      3.42      0.01         0.01
  228                         3.42      3.42      3.55      0.01         0.01
  229                         3.55      3.55      3.77      0.01         0.01
  230                         3.77      3.77      4.03      0.01         0.01
  231                         4.11      4.11      4.21      0.01         0.01
  232                         4.21      4.21      4.32      0.01         0.01
  233                         4.32      4.32      4.43      0.01         0.01
  234                         4.43      4.43      4.52      3.37         3.39
  235                         4.52      4.52      4.60      3.58         3.59
  236                         4.60      4.60      4.66      3.94         3.89
  237                         4.66      4.66      4.68      4.47         4.46
  238                         4.64      4.68      4.64      5.14         4.66
  239                         4.49      4.64      4.49      5.25         4.57
  240                         4.03      4.49      4.03      5.30         4.30
  241                         0.01      4.03      0.01      5.86         3.32
  

  Analysis begun on:  Wed Dec 14 08:43:46 2022
  Analysis ended on:  Wed Dec 14 08:43:48 2022
  Total elapsed time: 00:00:02